/*--------------------------------*- C++ -*----------------------------------*\
| =========                 |                                                 |
| \\      /  F ield         | OpenFOAM: The Open Source CFD Toolbox           |
|  \\    /   O peration     | Version:  2406                                  |
|   \\  /    A nd           | Website:  www.openfoam.com                      |
|    \\/     M anipulation  |                                                 |
\*---------------------------------------------------------------------------*/
FoamFile
{
    version     2.0;
    format      ascii;
    arch        "LSB;label=32;scalar=64";
    class       featureEdgeMesh;
    location    "constant/triSurface";
    object      combined.eMesh;
}
// * * * * * * * * * * * * * * * * * * * * * * * * * * * * * * * * * * * * * //


// points:

256
(
(0.285166 0.050000001 0.050000001)
(0.285166 -3.3306699e-17 0.050000001)
(0.285166 3.3176101e-18 0)
(0.285166 0.050000001 0)
(-0.36626801 -5.5511198e-17 0.988702)
(-0.36626801 0.988702 0.988702)
(-0.36626801 -5.5511198e-17 0)
(-0.36626801 0.988702 0)
(3.6626799 0.988702 0.988702)
(3.6626799 1.95103e-17 0.988702)
(3.6626799 0.988702 0)
(3.6626799 1.95103e-17 0)
(0.36626801 0.055117998 0.044957999)
(0.36626801 0.044957999 0.055117998)
(0.185359 0.050037999 0.050037999)
(0.36626801 0.02159 0.050037999)
(0.36626801 0.050037999 0.02159)
(0.36626801 0.050037999 0.050037999)
(0.36626801 -6.7595499e-17 0.098870203)
(0.36626801 -6.2222101e-17 0.096012004)
(0.28702 -3.3307301e-17 0.050000899)
(8.0664602e-17 1.21431e-17 1.20671e-17)
(0.28702 0.050000899 0)
(0.36626801 0.096012004 1.73472e-18)
(0.36626801 0.098870203 -1.73472e-18)
(0.288461 0 0.0558598)
(0.28859901 -3.7258799e-17 0.055932801)
(0.28832901 0 0.055785902)
(0.288203 0 0.055711299)
(0.288084 0 0.0556361)
(0.28797001 0 0.055560101)
(0.28786299 0 0.055483598)
(0.287761 0 0.055406399)
(0.28766701 0 0.055328801)
(0.28757799 0 0.0552506)
(0.287496 0 0.055171899)
(0.28745699 0 0.0551324)
(0.28742 0 0.0550927)
(0.28725901 0 0.054893199)
(0.28728801 0 0.054933298)
(0.287319 0 0.054973301)
(0.28735101 0 0.055013198)
(0.28738499 0 0.055052999)
(0.28723201 0 0.0548531)
(0.28720701 0 0.0548128)
(0.28718299 0 0.0547725)
(0.28708699 0 0.054570101)
(0.287103 0 0.054610699)
(0.28712001 0 0.054651201)
(0.287139 0 0.054691698)
(0.28716001 0 0.0547322)
(0.28707299 0 0.054529499)
(0.28706101 0 0.0544888)
(0.28705001 0 0.054448102)
(0.28702 -3.6106801e-17 0.054203499)
(0.28702101 0 0.054244298)
(0.28702301 0 0.054285102)
(0.287027 0 0.054325901)
(0.28703299 0 0.0543667)
(0.28704101 0 0.054407399)
(0.28118199 -3.7890599e-17 0.055858001)
(0.280687 0 0.055766601)
(0.28167501 0 0.0559576)
(0.28213701 -3.7980001e-17 0.056059401)
(0.28259701 0 0.0561698)
(0.28302401 -3.8078498e-17 0.056281202)
(0.28344801 0 0.0564017)
(0.28384501 0 0.056524601)
(0.28422099 0 0.0566517)
(0.28457701 0 0.056782998)
(0.28491101 0 0.056917999)
(0.28522301 0 0.057056699)
(0.28551301 -3.8102e-17 0.0571987)
(0.27320901 -3.7563499e-17 0.055121399)
(0.272598 -3.6716e-17 0.055117998)
(0.273821 -3.7567999e-17 0.055131599)
(0.274432 0 0.055148602)
(0.27503401 -3.7585998e-17 0.055172201)
(0.275635 -3.7599501e-17 0.0552026)
(0.27623701 0 0.055240002)
(0.27681899 -3.7635298e-17 0.0552832)
(0.277401 -3.7657599e-17 0.055333301)
(0.27798301 0 0.055390701)
(0.27853701 -3.7710499e-17 0.0554525)
(0.27908999 -3.7741201e-17 0.0555216)
(0.27964199 0 0.0555983)
(0.280166 -3.7810899e-17 0.055678599)
(0.21115699 -3.6716e-17 0.055117998)
(0.185166 -3.3306699e-17 0.050000001)
(0.272598 0.055117998 0)
(0.27320901 0.055121399 0)
(0.273821 0.055131599 0)
(0.274432 0.055148602 -1.97867e-17)
(0.27503401 0.055172201 0)
(0.275635 0.0552026 0)
(0.27623701 0.055240002 -1.8756699e-17)
(0.27681899 0.0552832 0)
(0.277401 0.055333301 0)
(0.27798301 0.055390701 -2.8839801e-17)
(0.27853701 0.0554525 0)
(0.27908999 0.0555216 0)
(0.27964199 0.0555983 -1.66967e-17)
(0.280166 0.055678599 0)
(0.280687 0.055766601 -1.9082e-17)
(0.28118199 0.055858001 0)
(0.28167501 0.0559576 -2.4286101e-17)
(0.28213701 0.056059401 0)
(0.28259701 0.0561698 -1.7780901e-17)
(0.28302401 0.056281202 0)
(0.28344801 0.0564017 -2.1250401e-17)
(0.28384501 0.056524601 -3.2092401e-17)
(0.28422099 0.0566517 -1.56125e-17)
(0.28457701 0.056782998 -2.4286101e-17)
(0.28491101 0.056917999 -2.0382999e-17)
(0.28522301 0.057056699 -2.6888201e-17)
(0.28551301 0.0571987 0)
(0.28703299 0.0543667 9.1072999e-18)
(0.287027 0.054325901 1.5178801e-17)
(0.28702301 0.054285102 3.1224999e-17)
(0.28702101 0.054244298 2.73219e-17)
(0.28702 0.054203499 0)
(0.28707299 0.054529499 2.60209e-17)
(0.28706101 0.0544888 9.1072999e-18)
(0.28705001 0.054448102 2.34188e-17)
(0.28704101 0.054407399 1.34441e-17)
(0.287139 0.054691698 2.4286101e-17)
(0.28712001 0.054651201 9.97466e-18)
(0.287103 0.054610699 1.7780901e-17)
(0.28708699 0.054570101 2.2985099e-17)
(0.28723201 0.0548531 2.60209e-17)
(0.28720701 0.0548128 9.97466e-18)
(0.28718299 0.0547725 2.60209e-17)
(0.28716001 0.0547322 2.5587199e-17)
(0.28735101 0.055013198 1.60462e-17)
(0.287319 0.054973301 2.38524e-17)
(0.28728801 0.054933298 2.51535e-17)
(0.28725901 0.054893199 3.7730199e-17)
(0.287496 0.055171899 2.5587199e-17)
(0.28745699 0.0551324 3.1224999e-17)
(0.28742 0.0550927 1.73472e-17)
(0.28738499 0.055052999 6.0715301e-18)
(0.28757799 0.0552506 2.6888201e-17)
(0.28766701 0.055328801 1.3877799e-17)
(0.287761 0.055406399 1.43115e-17)
(0.28786299 0.055483598 2.25514e-17)
(0.28797001 0.055560101 2.9924e-17)
(0.288084 0.0556361 1.34441e-17)
(0.288203 0.055711299 2.64545e-17)
(0.28832901 0.055785902 2.8622901e-17)
(0.288461 0.0558598 1.56125e-17)
(0.28859901 0.055932801 0)
(0.21115699 0.055117998 0)
(0.185166 0.050000001 0)
(0.21115699 0.055117998 0.044957999)
(0.21115699 0.044957999 0.055117998)
(0.36626801 0.0211598 0.055932801)
(0.36626801 0.021197399 0.0558598)
(0.36626801 0.0212333 0.055785902)
(0.36626801 0.0212676 0.055711299)
(0.36626801 0.0213002 0.0556361)
(0.36626801 0.0213312 0.055560101)
(0.36626801 0.0213605 0.055483598)
(0.36626801 0.021388 0.055406399)
(0.36626801 0.0214139 0.055328801)
(0.36626801 0.021438001 0.0552506)
(0.36626801 0.0214603 0.055171899)
(0.36626801 0.021480899 0.0550927)
(0.36626801 0.0214998 0.055013198)
(0.36626801 0.021516901 0.054933298)
(0.36626801 0.0215322 0.0548531)
(0.36626801 0.021545701 0.0547725)
(0.36626801 0.0215574 0.054691698)
(0.36626801 0.021567401 0.054610699)
(0.36626801 0.021575499 0.054529499)
(0.36626801 0.021581899 0.054448102)
(0.36626801 0.0215891 0.054285102)
(0.36626801 0.02159 0.054203499)
(0.36626801 0.0215864 0.0543667)
(0.36626801 0.0231786 0.055859402)
(0.36626801 0.023046199 0.0559576)
(0.36626801 0.022918301 0.0560611)
(0.36626801 0.022794999 0.0561698)
(0.36626801 0.0226765 0.056283399)
(0.36626801 0.0225632 0.0564017)
(0.36626801 0.0224551 0.056524601)
(0.36626801 0.0223525 0.0566517)
(0.36626801 0.022255599 0.056782998)
(0.36626801 0.022164499 0.056917999)
(0.36626801 0.022079401 0.057056699)
(0.36626801 0.022000499 0.0571987)
(0.36626801 0.0255192 0.055117998)
(0.36626801 0.0253522 0.055121399)
(0.36626801 0.025185499 0.055131599)
(0.36626801 0.0250195 0.055148602)
(0.36626801 0.024854301 0.055172399)
(0.36626801 0.0246903 0.055202901)
(0.36626801 0.024527799 0.055240002)
(0.36626801 0.0243671 0.0552838)
(0.36626801 0.0242084 0.055334002)
(0.36626801 0.0240521 0.055390701)
(0.36626801 0.0238984 0.055453699)
(0.36626801 0.023747601 0.055523001)
(0.36626801 0.0235999 0.0555983)
(0.36626801 0.0234557 0.055679601)
(0.36626801 0.023315201 0.055766601)
(0.185166 0.050000001 0.050000001)
(0.36626801 0.055121399 0.0253522)
(0.36626801 0.055117998 0.0255192)
(0.36626801 0.055131599 0.025185499)
(0.36626801 0.055148602 0.0250195)
(0.36626801 0.055172399 0.024854301)
(0.36626801 0.055202901 0.0246903)
(0.36626801 0.055240002 0.024527799)
(0.36626801 0.0552838 0.0243671)
(0.36626801 0.055334002 0.0242084)
(0.36626801 0.055390701 0.0240521)
(0.36626801 0.055453699 0.0238984)
(0.36626801 0.055523001 0.023747601)
(0.36626801 0.0555983 0.0235999)
(0.36626801 0.055679601 0.0234557)
(0.36626801 0.055766601 0.023315201)
(0.36626801 0.055859402 0.0231786)
(0.36626801 0.0559576 0.023046199)
(0.36626801 0.0560611 0.022918301)
(0.36626801 0.0561698 0.022794999)
(0.36626801 0.056283399 0.0226765)
(0.36626801 0.0564017 0.0225632)
(0.36626801 0.056524601 0.0224551)
(0.36626801 0.0566517 0.0223525)
(0.36626801 0.056782998 0.022255599)
(0.36626801 0.056917999 0.022164499)
(0.36626801 0.057056699 0.022079401)
(0.36626801 0.0571987 0.022000499)
(0.36626801 0.054203499 0.02159)
(0.36626801 0.054285102 0.0215891)
(0.36626801 0.0543667 0.0215864)
(0.36626801 0.054448102 0.021581899)
(0.36626801 0.054529499 0.021575499)
(0.36626801 0.054610699 0.021567401)
(0.36626801 0.054691698 0.0215574)
(0.36626801 0.0547725 0.021545701)
(0.36626801 0.0548531 0.0215322)
(0.36626801 0.054933298 0.021516901)
(0.36626801 0.055013198 0.0214998)
(0.36626801 0.0550927 0.021480899)
(0.36626801 0.055171899 0.0214603)
(0.36626801 0.0552506 0.021438001)
(0.36626801 0.055328801 0.0214139)
(0.36626801 0.055406399 0.021388)
(0.36626801 0.055483598 0.0213605)
(0.36626801 0.055560101 0.0213312)
(0.36626801 0.0556361 0.0213002)
(0.36626801 0.055711299 0.0212676)
(0.36626801 0.0558598 0.021197399)
(0.36626801 0.055932801 0.0211598)
(0.36626801 0.055785902 0.0212333)
)


// edges:

270
(
(25 26)
(27 25)
(28 27)
(29 28)
(30 29)
(31 30)
(32 31)
(33 32)
(34 33)
(35 34)
(36 35)
(37 36)
(38 39)
(39 40)
(40 41)
(41 42)
(42 37)
(43 38)
(44 43)
(45 44)
(46 47)
(47 48)
(48 49)
(49 50)
(50 45)
(51 46)
(52 51)
(53 52)
(54 55)
(55 56)
(56 57)
(57 58)
(58 59)
(59 53)
(60 61)
(62 60)
(63 62)
(64 63)
(65 64)
(66 65)
(67 66)
(68 67)
(69 68)
(70 69)
(71 70)
(72 71)
(73 74)
(75 73)
(76 75)
(77 76)
(78 77)
(79 78)
(80 79)
(81 80)
(82 81)
(83 82)
(84 83)
(85 84)
(86 85)
(61 86)
(18 72)
(26 19)
(20 54)
(87 88)
(74 87)
(89 90)
(90 91)
(91 92)
(92 93)
(93 94)
(94 95)
(95 96)
(96 97)
(97 98)
(98 99)
(99 100)
(100 101)
(101 102)
(102 103)
(103 104)
(104 105)
(105 106)
(106 107)
(107 108)
(108 109)
(109 110)
(110 111)
(111 112)
(112 113)
(113 114)
(114 115)
(116 117)
(117 118)
(118 119)
(119 120)
(121 122)
(122 123)
(124 116)
(123 124)
(125 126)
(126 127)
(128 121)
(127 128)
(129 130)
(130 131)
(132 125)
(131 132)
(133 134)
(134 135)
(136 129)
(135 136)
(137 138)
(138 139)
(140 133)
(139 140)
(141 137)
(142 141)
(143 142)
(144 143)
(145 144)
(146 145)
(147 146)
(148 147)
(149 148)
(150 149)
(19 18)
(88 21)
(120 22)
(17 0)
(0 1)
(1 20)
(23 150)
(24 23)
(115 24)
(151 89)
(21 152)
(3 2)
(2 1)
(0 3)
(22 3)
(152 151)
(4 5)
(6 4)
(5 7)
(7 6)
(8 9)
(10 8)
(11 10)
(9 11)
(8 5)
(4 9)
(10 7)
(11 2)
(21 6)
(12 17)
(153 12)
(13 154)
(17 13)
(154 14)
(14 153)
(155 156)
(156 157)
(157 158)
(158 159)
(159 160)
(160 161)
(161 162)
(162 163)
(163 164)
(164 165)
(165 166)
(167 168)
(166 167)
(168 169)
(169 170)
(171 172)
(170 171)
(172 173)
(173 174)
(175 176)
(177 175)
(174 177)
(178 179)
(179 180)
(180 181)
(181 182)
(182 183)
(183 184)
(184 185)
(185 186)
(186 187)
(187 188)
(188 189)
(190 191)
(191 192)
(192 193)
(193 194)
(194 195)
(195 196)
(196 197)
(197 198)
(198 199)
(199 200)
(200 201)
(201 202)
(202 203)
(203 204)
(204 178)
(189 18)
(19 155)
(176 15)
(15 20)
(205 14)
(13 190)
(206 207)
(208 206)
(209 208)
(210 209)
(211 210)
(212 211)
(213 212)
(214 213)
(215 214)
(216 215)
(217 216)
(218 217)
(219 218)
(220 219)
(221 220)
(222 221)
(223 222)
(224 223)
(225 224)
(226 225)
(227 226)
(228 227)
(229 228)
(230 229)
(231 230)
(232 231)
(233 234)
(234 235)
(235 236)
(236 237)
(237 238)
(238 239)
(239 240)
(240 241)
(241 242)
(242 243)
(243 244)
(244 245)
(245 246)
(246 247)
(247 248)
(248 249)
(249 250)
(250 251)
(251 252)
(253 254)
(252 255)
(255 253)
(17 15)
(21 205)
(16 233)
(22 16)
(254 23)
(232 24)
(16 17)
(12 207)
)

// * * * * * * * * * * * * * * * * * * * * * * * * * * * * * * * * * * * * * //


// ************************************************************************* //
