/*--------------------------------*- C++ -*----------------------------------*\
| =========                 |                                                 |
| \\      /  F ield         | OpenFOAM: The Open Source CFD Toolbox           |
|  \\    /   O peration     | Version:  2406                                  |
|   \\  /    A nd           | Website:  www.openfoam.com                      |
|    \\/     M anipulation  |                                                 |
\*---------------------------------------------------------------------------*/
FoamFile
{
    version     2.0;
    format      ascii;
    arch        "LSB;label=32;scalar=64";
    class       extendedFeatureEdgeMesh;
    location    "constant/extendedFeatureEdgeMesh";
    object      combined.extendedFeatureEdgeMesh;
}
// * * * * * * * * * * * * * * * * * * * * * * * * * * * * * * * * * * * * * //

// points

256
(
(0.285166 0.050000001 0.050000001)
(0.285166 -3.3306699e-17 0.050000001)
(0.285166 3.3176101e-18 0)
(0.285166 0.050000001 0)
(-0.36626801 -5.5511198e-17 0.988702)
(-0.36626801 0.988702 0.988702)
(-0.36626801 -5.5511198e-17 0)
(-0.36626801 0.988702 0)
(3.6626799 0.988702 0.988702)
(3.6626799 1.95103e-17 0.988702)
(3.6626799 0.988702 0)
(3.6626799 1.95103e-17 0)
(0.36626801 0.055117998 0.044957999)
(0.36626801 0.044957999 0.055117998)
(0.185359 0.050037999 0.050037999)
(0.36626801 0.02159 0.050037999)
(0.36626801 0.050037999 0.02159)
(0.36626801 0.050037999 0.050037999)
(0.36626801 -6.7595499e-17 0.098870203)
(0.36626801 -6.2222101e-17 0.096012004)
(0.28702 -3.3307301e-17 0.050000899)
(8.0664602e-17 1.21431e-17 1.20671e-17)
(0.28702 0.050000899 0)
(0.36626801 0.096012004 1.73472e-18)
(0.36626801 0.098870203 -1.73472e-18)
(0.288461 0 0.0558598)
(0.28859901 -3.7258799e-17 0.055932801)
(0.28832901 0 0.055785902)
(0.288203 0 0.055711299)
(0.288084 0 0.0556361)
(0.28797001 0 0.055560101)
(0.28786299 0 0.055483598)
(0.287761 0 0.055406399)
(0.28766701 0 0.055328801)
(0.28757799 0 0.0552506)
(0.287496 0 0.055171899)
(0.28745699 0 0.0551324)
(0.28742 0 0.0550927)
(0.28725901 0 0.054893199)
(0.28728801 0 0.054933298)
(0.287319 0 0.054973301)
(0.28735101 0 0.055013198)
(0.28738499 0 0.055052999)
(0.28723201 0 0.0548531)
(0.28720701 0 0.0548128)
(0.28718299 0 0.0547725)
(0.28708699 0 0.054570101)
(0.287103 0 0.054610699)
(0.28712001 0 0.054651201)
(0.287139 0 0.054691698)
(0.28716001 0 0.0547322)
(0.28707299 0 0.054529499)
(0.28706101 0 0.0544888)
(0.28705001 0 0.054448102)
(0.28702 -3.6106801e-17 0.054203499)
(0.28702101 0 0.054244298)
(0.28702301 0 0.054285102)
(0.287027 0 0.054325901)
(0.28703299 0 0.0543667)
(0.28704101 0 0.054407399)
(0.28118199 -3.7890599e-17 0.055858001)
(0.280687 0 0.055766601)
(0.28167501 0 0.0559576)
(0.28213701 -3.7980001e-17 0.056059401)
(0.28259701 0 0.0561698)
(0.28302401 -3.8078498e-17 0.056281202)
(0.28344801 0 0.0564017)
(0.28384501 0 0.056524601)
(0.28422099 0 0.0566517)
(0.28457701 0 0.056782998)
(0.28491101 0 0.056917999)
(0.28522301 0 0.057056699)
(0.28551301 -3.8102e-17 0.0571987)
(0.27320901 -3.7563499e-17 0.055121399)
(0.272598 -3.6716e-17 0.055117998)
(0.273821 -3.7567999e-17 0.055131599)
(0.274432 0 0.055148602)
(0.27503401 -3.7585998e-17 0.055172201)
(0.275635 -3.7599501e-17 0.0552026)
(0.27623701 0 0.055240002)
(0.27681899 -3.7635298e-17 0.0552832)
(0.277401 -3.7657599e-17 0.055333301)
(0.27798301 0 0.055390701)
(0.27853701 -3.7710499e-17 0.0554525)
(0.27908999 -3.7741201e-17 0.0555216)
(0.27964199 0 0.0555983)
(0.280166 -3.7810899e-17 0.055678599)
(0.21115699 -3.6716e-17 0.055117998)
(0.185166 -3.3306699e-17 0.050000001)
(0.272598 0.055117998 0)
(0.27320901 0.055121399 0)
(0.273821 0.055131599 0)
(0.274432 0.055148602 -1.97867e-17)
(0.27503401 0.055172201 0)
(0.275635 0.0552026 0)
(0.27623701 0.055240002 -1.8756699e-17)
(0.27681899 0.0552832 0)
(0.277401 0.055333301 0)
(0.27798301 0.055390701 -2.8839801e-17)
(0.27853701 0.0554525 0)
(0.27908999 0.0555216 0)
(0.27964199 0.0555983 -1.66967e-17)
(0.280166 0.055678599 0)
(0.280687 0.055766601 -1.9082e-17)
(0.28118199 0.055858001 0)
(0.28167501 0.0559576 -2.4286101e-17)
(0.28213701 0.056059401 0)
(0.28259701 0.0561698 -1.7780901e-17)
(0.28302401 0.056281202 0)
(0.28344801 0.0564017 -2.1250401e-17)
(0.28384501 0.056524601 -3.2092401e-17)
(0.28422099 0.0566517 -1.56125e-17)
(0.28457701 0.056782998 -2.4286101e-17)
(0.28491101 0.056917999 -2.0382999e-17)
(0.28522301 0.057056699 -2.6888201e-17)
(0.28551301 0.0571987 0)
(0.28703299 0.0543667 9.1072999e-18)
(0.287027 0.054325901 1.5178801e-17)
(0.28702301 0.054285102 3.1224999e-17)
(0.28702101 0.054244298 2.73219e-17)
(0.28702 0.054203499 0)
(0.28707299 0.054529499 2.60209e-17)
(0.28706101 0.0544888 9.1072999e-18)
(0.28705001 0.054448102 2.34188e-17)
(0.28704101 0.054407399 1.34441e-17)
(0.287139 0.054691698 2.4286101e-17)
(0.28712001 0.054651201 9.97466e-18)
(0.287103 0.054610699 1.7780901e-17)
(0.28708699 0.054570101 2.2985099e-17)
(0.28723201 0.0548531 2.60209e-17)
(0.28720701 0.0548128 9.97466e-18)
(0.28718299 0.0547725 2.60209e-17)
(0.28716001 0.0547322 2.5587199e-17)
(0.28735101 0.055013198 1.60462e-17)
(0.287319 0.054973301 2.38524e-17)
(0.28728801 0.054933298 2.51535e-17)
(0.28725901 0.054893199 3.7730199e-17)
(0.287496 0.055171899 2.5587199e-17)
(0.28745699 0.0551324 3.1224999e-17)
(0.28742 0.0550927 1.73472e-17)
(0.28738499 0.055052999 6.0715301e-18)
(0.28757799 0.0552506 2.6888201e-17)
(0.28766701 0.055328801 1.3877799e-17)
(0.287761 0.055406399 1.43115e-17)
(0.28786299 0.055483598 2.25514e-17)
(0.28797001 0.055560101 2.9924e-17)
(0.288084 0.0556361 1.34441e-17)
(0.288203 0.055711299 2.64545e-17)
(0.28832901 0.055785902 2.8622901e-17)
(0.288461 0.0558598 1.56125e-17)
(0.28859901 0.055932801 0)
(0.21115699 0.055117998 0)
(0.185166 0.050000001 0)
(0.21115699 0.055117998 0.044957999)
(0.21115699 0.044957999 0.055117998)
(0.36626801 0.0211598 0.055932801)
(0.36626801 0.021197399 0.0558598)
(0.36626801 0.0212333 0.055785902)
(0.36626801 0.0212676 0.055711299)
(0.36626801 0.0213002 0.0556361)
(0.36626801 0.0213312 0.055560101)
(0.36626801 0.0213605 0.055483598)
(0.36626801 0.021388 0.055406399)
(0.36626801 0.0214139 0.055328801)
(0.36626801 0.021438001 0.0552506)
(0.36626801 0.0214603 0.055171899)
(0.36626801 0.021480899 0.0550927)
(0.36626801 0.0214998 0.055013198)
(0.36626801 0.021516901 0.054933298)
(0.36626801 0.0215322 0.0548531)
(0.36626801 0.021545701 0.0547725)
(0.36626801 0.0215574 0.054691698)
(0.36626801 0.021567401 0.054610699)
(0.36626801 0.021575499 0.054529499)
(0.36626801 0.021581899 0.054448102)
(0.36626801 0.0215891 0.054285102)
(0.36626801 0.02159 0.054203499)
(0.36626801 0.0215864 0.0543667)
(0.36626801 0.0231786 0.055859402)
(0.36626801 0.023046199 0.0559576)
(0.36626801 0.022918301 0.0560611)
(0.36626801 0.022794999 0.0561698)
(0.36626801 0.0226765 0.056283399)
(0.36626801 0.0225632 0.0564017)
(0.36626801 0.0224551 0.056524601)
(0.36626801 0.0223525 0.0566517)
(0.36626801 0.022255599 0.056782998)
(0.36626801 0.022164499 0.056917999)
(0.36626801 0.022079401 0.057056699)
(0.36626801 0.022000499 0.0571987)
(0.36626801 0.0255192 0.055117998)
(0.36626801 0.0253522 0.055121399)
(0.36626801 0.025185499 0.055131599)
(0.36626801 0.0250195 0.055148602)
(0.36626801 0.024854301 0.055172399)
(0.36626801 0.0246903 0.055202901)
(0.36626801 0.024527799 0.055240002)
(0.36626801 0.0243671 0.0552838)
(0.36626801 0.0242084 0.055334002)
(0.36626801 0.0240521 0.055390701)
(0.36626801 0.0238984 0.055453699)
(0.36626801 0.023747601 0.055523001)
(0.36626801 0.0235999 0.0555983)
(0.36626801 0.0234557 0.055679601)
(0.36626801 0.023315201 0.055766601)
(0.185166 0.050000001 0.050000001)
(0.36626801 0.055121399 0.0253522)
(0.36626801 0.055117998 0.0255192)
(0.36626801 0.055131599 0.025185499)
(0.36626801 0.055148602 0.0250195)
(0.36626801 0.055172399 0.024854301)
(0.36626801 0.055202901 0.0246903)
(0.36626801 0.055240002 0.024527799)
(0.36626801 0.0552838 0.0243671)
(0.36626801 0.055334002 0.0242084)
(0.36626801 0.055390701 0.0240521)
(0.36626801 0.055453699 0.0238984)
(0.36626801 0.055523001 0.023747601)
(0.36626801 0.0555983 0.0235999)
(0.36626801 0.055679601 0.0234557)
(0.36626801 0.055766601 0.023315201)
(0.36626801 0.055859402 0.0231786)
(0.36626801 0.0559576 0.023046199)
(0.36626801 0.0560611 0.022918301)
(0.36626801 0.0561698 0.022794999)
(0.36626801 0.056283399 0.0226765)
(0.36626801 0.0564017 0.0225632)
(0.36626801 0.056524601 0.0224551)
(0.36626801 0.0566517 0.0223525)
(0.36626801 0.056782998 0.022255599)
(0.36626801 0.056917999 0.022164499)
(0.36626801 0.057056699 0.022079401)
(0.36626801 0.0571987 0.022000499)
(0.36626801 0.054203499 0.02159)
(0.36626801 0.054285102 0.0215891)
(0.36626801 0.0543667 0.0215864)
(0.36626801 0.054448102 0.021581899)
(0.36626801 0.054529499 0.021575499)
(0.36626801 0.054610699 0.021567401)
(0.36626801 0.054691698 0.0215574)
(0.36626801 0.0547725 0.021545701)
(0.36626801 0.0548531 0.0215322)
(0.36626801 0.054933298 0.021516901)
(0.36626801 0.055013198 0.0214998)
(0.36626801 0.0550927 0.021480899)
(0.36626801 0.055171899 0.0214603)
(0.36626801 0.0552506 0.021438001)
(0.36626801 0.055328801 0.0214139)
(0.36626801 0.055406399 0.021388)
(0.36626801 0.055483598 0.0213605)
(0.36626801 0.055560101 0.0213312)
(0.36626801 0.0556361 0.0213002)
(0.36626801 0.055711299 0.0212676)
(0.36626801 0.0558598 0.021197399)
(0.36626801 0.055932801 0.0211598)
(0.36626801 0.055785902 0.0212333)
)

// edges

270
(
(25 26)
(27 25)
(28 27)
(29 28)
(30 29)
(31 30)
(32 31)
(33 32)
(34 33)
(35 34)
(36 35)
(37 36)
(38 39)
(39 40)
(40 41)
(41 42)
(42 37)
(43 38)
(44 43)
(45 44)
(46 47)
(47 48)
(48 49)
(49 50)
(50 45)
(51 46)
(52 51)
(53 52)
(54 55)
(55 56)
(56 57)
(57 58)
(58 59)
(59 53)
(60 61)
(62 60)
(63 62)
(64 63)
(65 64)
(66 65)
(67 66)
(68 67)
(69 68)
(70 69)
(71 70)
(72 71)
(73 74)
(75 73)
(76 75)
(77 76)
(78 77)
(79 78)
(80 79)
(81 80)
(82 81)
(83 82)
(84 83)
(85 84)
(86 85)
(61 86)
(18 72)
(26 19)
(20 54)
(87 88)
(74 87)
(89 90)
(90 91)
(91 92)
(92 93)
(93 94)
(94 95)
(95 96)
(96 97)
(97 98)
(98 99)
(99 100)
(100 101)
(101 102)
(102 103)
(103 104)
(104 105)
(105 106)
(106 107)
(107 108)
(108 109)
(109 110)
(110 111)
(111 112)
(112 113)
(113 114)
(114 115)
(116 117)
(117 118)
(118 119)
(119 120)
(121 122)
(122 123)
(124 116)
(123 124)
(125 126)
(126 127)
(128 121)
(127 128)
(129 130)
(130 131)
(132 125)
(131 132)
(133 134)
(134 135)
(136 129)
(135 136)
(137 138)
(138 139)
(140 133)
(139 140)
(141 137)
(142 141)
(143 142)
(144 143)
(145 144)
(146 145)
(147 146)
(148 147)
(149 148)
(150 149)
(19 18)
(88 21)
(120 22)
(17 0)
(0 1)
(1 20)
(23 150)
(24 23)
(115 24)
(151 89)
(21 152)
(3 2)
(2 1)
(0 3)
(22 3)
(152 151)
(4 5)
(6 4)
(5 7)
(7 6)
(8 9)
(10 8)
(11 10)
(9 11)
(8 5)
(4 9)
(10 7)
(11 2)
(21 6)
(12 17)
(153 12)
(13 154)
(17 13)
(154 14)
(14 153)
(155 156)
(156 157)
(157 158)
(158 159)
(159 160)
(160 161)
(161 162)
(162 163)
(163 164)
(164 165)
(165 166)
(167 168)
(166 167)
(168 169)
(169 170)
(171 172)
(170 171)
(172 173)
(173 174)
(175 176)
(177 175)
(174 177)
(178 179)
(179 180)
(180 181)
(181 182)
(182 183)
(183 184)
(184 185)
(185 186)
(186 187)
(187 188)
(188 189)
(190 191)
(191 192)
(192 193)
(193 194)
(194 195)
(195 196)
(196 197)
(197 198)
(198 199)
(199 200)
(200 201)
(201 202)
(202 203)
(203 204)
(204 178)
(189 18)
(19 155)
(176 15)
(15 20)
(205 14)
(13 190)
(206 207)
(208 206)
(209 208)
(210 209)
(211 210)
(212 211)
(213 212)
(214 213)
(215 214)
(216 215)
(217 216)
(218 217)
(219 218)
(220 219)
(221 220)
(222 221)
(223 222)
(224 223)
(225 224)
(226 225)
(227 226)
(228 227)
(229 228)
(230 229)
(231 230)
(232 231)
(233 234)
(234 235)
(235 236)
(236 237)
(237 238)
(238 239)
(239 240)
(240 241)
(241 242)
(242 243)
(243 244)
(244 245)
(245 246)
(246 247)
(247 248)
(248 249)
(249 250)
(250 251)
(251 252)
(253 254)
(252 255)
(255 253)
(17 15)
(21 205)
(16 233)
(22 16)
(254 23)
(232 24)
(16 17)
(12 207)
)

// concaveStart mixedStart nonFeatureStart
12 17 25
// internalStart flatStart openStart multipleStart
154 270 270 270
// normals

505
(
(-0.23539138 0.86402574 0.44502856)
(-5.2145809e-13 -1 4.7547441e-13)
(-0.23793609 0.87336638 0.42499126)
(-2.3794979e-14 -1 4.2501573e-14)
(-0.24024265 0.88183528 0.40577087)
(-2.647752e-14 -1 4.4720645e-14)
(-0.2426955 0.89083987 0.38406148)
(-3.0012353e-14 -1 4.7494035e-14)
(-0.24453672 0.89759067 0.3667871)
(-3.3284471e-14 -1 4.9924259e-14)
(-0.24670575 0.90555463 0.34511895)
(-3.8097227e-14 -1 5.3294563e-14)
(-0.24831272 0.91144706 0.32803209)
(-4.2574802e-14 -1 5.6243197e-14)
(-0.25046459 0.91935783 0.30339523)
(-5.0421194e-14 -1 6.1076696e-14)
(-0.25182587 0.92434194 0.28666306)
(-5.6953821e-14 -1 6.4832722e-14)
(-0.25352275 0.93057703 0.2641072)
(-6.7764468e-14 -1 7.05936e-14)
(-0.25442172 0.93387836 0.25127834)
(-7.5154688e-14 -1 7.4226153e-14)
(-0.25531109 0.93714746 0.23784635)
(-8.4289308e-14 -1 7.8523435e-14)
(-0.25823097 0.94786335 0.18674004)
(-1.3900974e-13 -1 1.0052506e-13)
(-0.25756717 0.94542681 0.19956778)
(-1.2138795e-13 -1 9.4053621e-14)
(-0.25719915 0.94407319 0.20633568)
(-1.1334398e-13 -1 9.0929176e-14)
(-0.25647418 0.94143019 0.21892967)
(-1.0025341e-13 -1 8.5577599e-14)
(-0.2560621 0.93990411 0.22585941)
(-9.3951755e-14 -1 8.2870085e-14)
(-0.25882588 0.95007105 0.17428186)
(-1.6019066e-13 -1 1.0786528e-13)
(-0.2594278 0.95225452 0.16096131)
(-1.8901148e-13 -1 1.1727168e-13)
(-0.25968894 0.95320668 0.15478594)
(-2.0496545e-13 -1 1.2216835e-13)
(-0.261456 0.95969689 0.10306616)
(-4.6577877e-13 -1 1.8361035e-13)
(-0.26126727 0.95900415 0.10977455)
(-4.0988266e-13 -1 1.7221707e-13)
(-0.26088068 0.95759369 0.12229307)
(-3.2868417e-13 -1 1.5407732e-13)
(-0.2604404 0.95599 0.13510705)
(-2.6893304e-13 -1 1.3951273e-13)
(-0.25995366 0.95417833 0.1482154)
(-2.2366418e-13 -1 1.2752456e-13)
(-0.26177561 0.96089429 0.090308862)
(-6.070728e-13 -1 2.0943148e-13)
(-0.2620716 0.96195995 0.077146202)
(-8.4015479e-13 -1 2.4731696e-13)
(-0.26219604 0.96241049 0.070846931)
(-1.0006838e-12 -1 2.7039071e-13)
(-0.26284616 0.96481567 0.0065279542)
(-3.6720237e-11 -1 1.7969549e-12)
(-0.26283305 0.96475559 0.012862094)
(-0.26276784 0.96451622 0.025720153)
(-7.2542182e-12 -1 7.1005496e-13)
(-0.26265948 0.96411762 0.038564321)
(-3.2920728e-12 -1 4.8335035e-13)
(-0.26250189 0.96354507 0.051707466)
(-1.8851309e-12 -1 3.7133197e-13)
(-0.26241366 0.96320925 0.058025938)
(-1.4996674e-12 -1 3.3161234e-13)
(0.15109629 -0.55460795 -0.81827864)
(-6.7849664e-14 -1 -4.7110648e-14)
(0.16017749 -0.58794485 -0.79288337)
(6.7406618e-14 -1 4.6765369e-14)
(0.16886552 -0.61983321 -0.76634928)
(-7.1284055e-14 -1 -4.9577909e-14)
(0.17723548 -0.65055806 -0.73848615)
(7.0762805e-14 -1 4.9177924e-14)
(0.18516791 -0.67967088 -0.70976077)
(-7.5461317e-14 -1 -5.2566249e-14)
(0.19297101 -0.70831525 -0.67900788)
(7.497588e-14 -1 5.2190822e-14)
(0.20037158 -0.73547777 -0.64724314)
(1.5161833e-17 -1 -4.897597e-17)
(0.20750527 -0.7616682 -0.61384291)
(1.6290008e-17 -1 -4.8189166e-17)
(0.2140509 -0.78569132 -0.5804062)
(1.7468576e-17 -1 -4.7366629e-17)
(0.22035802 -0.80884605 -0.54517008)
(1.8776423e-17 -1 -4.6453239e-17)
(0.22626111 -0.83051765 -0.50896595)
(2.0206519e-17 -1 -4.5453814e-17)
(0.23159419 -0.85008926 -0.47298244)
(-9.7849832e-14 -1 -6.8485075e-14)
(0.0055652823 -0.020427759 -0.99977584)
(-1.3816779e-15 -1 -9.6563592e-16)
(0.016633264 -0.061054855 -0.99799581)
(-6.9530413e-18 -1 -2.3987226e-17)
(0.027671923 -0.10157379 -0.99444308)
(6.0334776e-14 -1 4.1348444e-14)
(0.038772911 -0.14231896 -0.98906116)
(-6.0796482e-14 -1 -4.1784239e-14)
(0.049668977 -0.18231475 -0.98198489)
(-2.0774553e-17 -1 -3.3472913e-17)
(0.060462742 -0.22193438 -0.97318518)
(5.989913e-14 -1 4.1169304e-14)
(0.071433289 -0.26220087 -0.96236583)
(-6.1520198e-14 -1 -4.2404026e-14)
(0.081808151 -0.30028559 -0.95033467)
(-3.4615328e-17 -1 -4.2999527e-17)
(0.092337114 -0.33893472 -0.93626765)
(6.0584153e-14 -1 4.1760869e-14)
(0.1026869 -0.37691981 -0.92053618)
(-6.3197114e-14 -1 -4.3683513e-14)
(0.11285597 -0.41424881 -0.90313978)
(-4.8913578e-17 -1 -5.2869483e-17)
(0.12284234 -0.4509051 -0.88407825)
(6.2380243e-14 -1 4.3121157e-14)
(0.13238396 -0.48592984 -0.86391358)
(-6.5228146e-14 -1 -4.5211505e-14)
(0.14210008 -0.52159003 -0.84127963)
(6.4972762e-14 -1 4.4996624e-14)
(0.23421883 -0.85972325 -0.45389148)
(-2.6124943e-16 -1 -2.0148787e-16)
(-0.2342193 0.85972353 0.45389071)
(2.5898335e-17 -1 -6.7303733e-16)
(-0.2628557 0.96483516 0)
(-3.097029e-20 -1 -6.6613519e-16)
(0.19320413 -1.2672193e-07 -0.98115858)
(-1.1339718e-16 -1 -9.0268859e-17)
(0 0 -1)
(0 -1 -2.0132305e-17)
(0.0055652823 -0.99977584 -0.020427759)
(0 0 -1)
(0.016633264 -0.99799581 -0.061054855)
(0 0 -1)
(0.027671923 -0.99444308 -0.10157379)
(-3.1777463e-14 -2.1787757e-14 -1)
(0.038772911 -0.98906116 -0.14231896)
(3.2005967e-14 2.198697e-14 -1)
(0.049668977 -0.98198489 -0.18231475)
(0 0 -1)
(0.060462742 -0.97318518 -0.22193438)
(-2.988041e-14 -2.0546693e-14 -1)
(0.071433289 -0.96236583 -0.26220087)
(3.0661142e-14 2.112426e-14 -1)
(0.081808151 -0.95033467 -0.30028559)
(0 0 -1)
(0.092337114 -0.93626765 -0.33893472)
(-4.6396584e-14 -3.1995977e-14 -1)
(0.1026869 -0.92053618 -0.37691981)
(4.8332671e-14 3.339423e-14 -1)
(0.11285597 -0.90313978 -0.41424881)
(0 0 -1)
(0.12284234 -0.88407825 -0.4509051)
(-2.759594e-14 -1.9084478e-14 -1)
(0.13238396 -0.86391358 -0.48592984)
(2.8804887e-14 1.9957119e-14 -1)
(0.14210008 -0.84127963 -0.52159003)
(-3.278831e-14 -2.2716985e-14 -1)
(0.15109566 -0.8182752 -0.5546132)
(3.4171174e-14 2.3716856e-14 -1)
(0.16017742 -0.79288305 -0.58794529)
(-4.3202342e-14 -2.9985031e-14 -1)
(0.16886534 -0.76634843 -0.61983431)
(4.5584489e-14 3.1691895e-14 -1)
(0.17723518 -0.73848492 -0.65055954)
(-3.3126846e-14 -2.3030916e-14 -1)
(0.18516742 -0.70975892 -0.67967294)
(3.5238878e-14 2.4538623e-14 -1)
(0.19297056 -0.67900628 -0.7083169)
(-4.1839182e-14 -2.913475e-14 -1)
(0.20037131 -0.64724226 -0.73547861)
(-2.2469476e-14 -1.5636087e-14 -1)
(0.20750618 -0.61384557 -0.76166581)
(3.5459684e-14 2.4764487e-14 -1)
(0.21405036 -0.58040472 -0.78569256)
(-1.9380642e-14 -1.350923e-14 -1)
(0.22035872 -0.54517181 -0.80884469)
(9.1052586e-15 6.3851025e-15 -1)
(0.22626181 -0.50896753 -0.8305165)
(-1.5915231e-14 -1.1100514e-14 -1)
(0.23159339 -0.47298079 -0.85009039)
(6.9056458e-14 4.8319409e-14 -1)
(-0.26265311 0.038563386 0.9641194)
(-3.0447175e-12 2.9821947e-13 -1)
(-0.26276784 0.025720153 0.96451622)
(-1.2721394e-11 8.5189607e-13 -1)
(-0.26283305 0.012862094 0.96475559)
(-2.3817036e-11 1.2611761e-12 -1)
(-0.26284616 0.0065279542 0.96481567)
(-0.26207016 0.07714578 0.96196037)
(2.5469393e-12 -3.3416446e-13 -1)
(-0.26219604 0.070846931 0.96241049)
(-3.0328559e-12 4.6785141e-13 -1)
(-0.26250189 0.051707466 0.96354507)
(4.3246315e-13 2.1372109e-14 -1)
(-0.26241366 0.058025938 0.96320925)
(1.5170097e-12 -9.0383697e-14 -1)
(-0.26087687 0.12229128 0.95759496)
(1.3494308e-12 -2.7918327e-13 -1)
(-0.26126727 0.10977455 0.95900415)
(-1.0927931e-12 2.664098e-13 -1)
(-0.26177561 0.090308862 0.96089429)
(-8.4731875e-13 2.1754307e-13 -1)
(-0.261456 0.10306616 0.95969689)
(-9.0273164e-13 2.2766964e-13 -1)
(-0.25942645 0.16096047 0.95225503)
(1.2177659e-12 -3.5739185e-13 -1)
(-0.25968894 0.15478594 0.95320668)
(-1.4337996e-12 4.5643925e-13 -1)
(-0.2604404 0.13510705 0.95599)
(-6.4075828e-14 6.5365042e-14 -1)
(-0.25995366 0.1482154 0.95417833)
(-1.232551e-13 8.1036988e-14 -1)
(-0.25719529 0.20633258 0.94407492)
(-5.4767662e-13 2.4371399e-13 -1)
(-0.25756717 0.19956778 0.94542681)
(-1.6436656e-13 9.4828481e-14 -1)
(-0.25882588 0.17428186 0.95007105)
(7.2612982e-13 -1.9693403e-13 -1)
(-0.25823097 0.18674004 0.94786335)
(-9.7807648e-13 3.9365621e-13 -1)
(-0.25441437 0.25127109 0.93388231)
(-3.4096056e-13 1.9401618e-13 -1)
(-0.25531109 0.23784635 0.93714746)
(6.8512319e-13 -2.8869378e-13 -1)
(-0.25647418 0.21892967 0.94143019)
(-6.0798157e-13 2.6836735e-13 -1)
(-0.2560621 0.22585941 0.93990411)
(6.1200934e-13 -2.5580353e-13 -1)
(-0.25352275 0.2641072 0.93057703)
(-1.7976777e-14 3.5258343e-14 -1)
(-0.25182435 0.28666133 0.92434289)
(-3.1720153e-13 1.9471202e-13 -1)
(-0.25046459 0.30339523 0.91935783)
(-1.0596775e-14 1.8425275e-14 -1)
(-0.24830998 0.32802848 0.91144911)
(1.345166e-13 -7.0966803e-14 -1)
(-0.24670575 0.34511895 0.90555463)
(1.0636995e-13 -5.2431288e-14 -1)
(-0.2445362 0.36678633 0.89759113)
(-2.9875892e-13 2.3127462e-13 -1)
(-0.2426955 0.38406148 0.89083987)
(1.9484856e-13 -1.3533092e-13 -1)
(-0.24024241 0.40577047 0.88183554)
(1.2738507e-14 7.5506065e-15 -1)
(-0.23793609 0.42499126 0.87336638)
(-2.0246095e-13 1.8556956e-13 -1)
(-0.23539137 0.44502855 0.86402575)
(-2.1879138e-13 1.9977723e-13 -1)
(-1 0 0)
(-2.9962768e-17 -1 -1.8799944e-15)
(0.26069103 0 -0.96542229)
(-2.0633661e-16 -1 -1.4486549e-16)
(-0.2628557 0 0.96483516)
(0 0 -1)
(-0.00046852078 5.8312337e-07 0.99999989)
(-0.00046852078 0.99999989 5.8312337e-07)
(-0.00048424685 0 0.99999988)
(-1 0 0)
(2.9900123e-20 -1 -7.3248616e-16)
(-0.2342193 0.45389071 0.85972353)
(6.9516707e-19 4.1935142e-17 -1)
(-1 0 0)
(3.2819372e-16 -1.2138552e-15 -1)
(0.23421883 -0.45389148 -0.85972325)
(-1.5782677e-17 -1.1043277e-17 -1)
(0 -1 0)
(0 0 -1)
(0.26069103 -0.96542229 0)
(-5.6246872e-17 -3.3041837e-17 -1)
(-1 0 0)
(0 0 -1)
(-0.00048424685 0.99999988 0)
(0.19320413 -0.98115858 -1.2672193e-07)
(-0 0 -1)
(-1 0 0)
(0 0 1)
(1.8471255e-16 -1 0)
(-1 0 -0)
(-0 1 0)
(3.2946094e-17 0 -1)
(1 0 0)
(0 0 1)
(0 1 0)
(1 0 0)
(-5.262449e-19 0 -1)
(2.6424428e-17 -1 0)
(1.8620617e-17 -1 2.890948e-17)
(0 1.949492e-18 -1)
(-0 0 -1)
(4.7942631e-18 -1 -7.3266282e-16)
(0 -0.70710678 -0.70710678)
(-1 0 0)
(-0 -1 0)
(-0 -0.70710678 -0.70710678)
(-0 -0 -1)
(-1 -0 -0)
(0 -0.70710678 -0.70710678)
(0.19320437 0 -0.98115854)
(-0 -0.70710678 -0.70710678)
(0.19320437 -0.98115854 0)
(-0.23539227 0.86402904 0.44502169)
(-1 0 0)
(-0.2380064 0.87362688 0.4244161)
(-1 0 0)
(-0.24027384 0.88195092 0.405501)
(-1 0 0)
(-0.24249823 0.89010822 0.38587818)
(-1 0 0)
(-0.24459554 0.89780892 0.36621327)
(-1 0 0)
(-0.24656269 0.90502345 0.34661129)
(-1 0 0)
(-0.24858188 0.91244714 0.32503425)
(-1 0 0)
(-0.25020364 0.91838743 0.3065333)
(-1 0 0)
(-0.2519532 0.92481586 0.28501792)
(-1 0 0)
(-0.25355116 0.93068286 0.26370669)
(-1 0 0)
(-0.25494664 0.93582056 0.24339698)
(-1 0 0)
(-0.25742202 0.94489918 0.20223609)
(-1 0 0)
(-0.25620209 0.9404134 0.22356906)
(-1 0 0)
(-0.25851247 0.94889471 0.1810252)
(-1 0 0)
(-0.25948782 0.95247755 0.15953867)
(-1 0 0)
(-0.26100633 0.95806254 0.11828721)
(-1 0 0)
(-0.2603257 0.95555657 0.13835525)
(-1 0 0)
(-0.26164627 0.96039874 0.095788726)
(-1 0 0)
(-0.26210112 0.96207114 0.07564477)
(-1 0 0)
(-0.26284083 0.96478058 0.01063659)
(-1 0 0)
(-0.26271789 0.9643446 0.03191882)
(-1 0 0)
(-0.26248188 0.96346574 0.053263769)
(-1 0 0)
(0.16019782 -0.58802017 -0.7928234)
(-1 0 -0)
(0.16891657 -0.62002237 -0.766185)
(-1 -0 0)
(0.17730564 -0.65081821 -0.73824005)
(-1 -0 0)
(0.18526801 -0.68004215 -0.70937892)
(-1 -0 0)
(0.1930536 -0.70862179 -0.67866447)
(-1 0 -0)
(0.20041475 -0.73563808 -0.64704755)
(-1 -0 0)
(0.20737837 -0.7611967 -0.61447034)
(-1 0 -0)
(0.21411847 -0.78594257 -0.580041)
(-1 0 -0)
(0.22028111 -0.8085598 -0.54562559)
(-1 0 -0)
(0.22619368 -0.83026641 -0.50940564)
(-1 0 -0)
(0.23166282 -0.85034526 -0.47248839)
(-1 0 0)
(0.0055472418 -0.020361972 -0.99977728)
(-1 -0 0)
(0.016635701 -0.061063744 -0.99799523)
(-1 0 0)
(0.027748065 -0.10185141 -0.99441256)
(-1 0 0)
(0.038814761 -0.14247154 -0.98903755)
(-1 0 -0)
(0.04975524 -0.18262923 -0.98192208)
(-1 0 -0)
(0.060527969 -0.22217213 -0.97312687)
(-1 0 0)
(0.071455936 -0.26228342 -0.96234165)
(-1 0 -0)
(0.081891863 -0.30059068 -0.95023101)
(-1 0 -0)
(0.092506079 -0.33955035 -0.93602788)
(-1 0 0)
(0.1027773 -0.37724917 -0.92039116)
(-1 0 -0)
(0.11303462 -0.41489959 -0.90281865)
(-1 0 -0)
(0.12280114 -0.45075504 -0.88416049)
(-1 0 0)
(0.13261903 -0.4867857 -0.86339555)
(-1 0 -0)
(0.14197359 -0.52112965 -0.84158623)
(-1 0 -0)
(0.15133029 -0.55547444 -0.81764741)
(-1 0 -0)
(-1 0 0)
(-0.2628557 0.96483516 0)
(-1 0 0)
(-0.00046815259 0 0.99999989)
(0.1931725 0 -0.98116481)
(0.1931725 -0.98116481 0)
(0.0055472418 -0.99977728 -0.020361972)
(-1 0 0)
(0.016635701 -0.99799523 -0.061063744)
(-1 0 -0)
(0.027748065 -0.99441256 -0.10185141)
(-1 0 -0)
(0.038814761 -0.98903755 -0.14247154)
(-1 0 0)
(0.04975524 -0.98192208 -0.18262923)
(-1 0 -0)
(0.060527969 -0.97312687 -0.22217213)
(-1 0 -0)
(0.071455936 -0.96234165 -0.26228342)
(-1 0 0)
(0.081891863 -0.95023101 -0.30059068)
(-1 0 -0)
(0.092506079 -0.93602788 -0.33955035)
(-1 0 -0)
(0.1027773 -0.92039116 -0.37724917)
(-1 0 0)
(0.11303462 -0.90281865 -0.41489959)
(-1 0 -0)
(0.12280114 -0.88416049 -0.45075504)
(-1 0 -0)
(0.13261903 -0.86339555 -0.4867857)
(-1 0 0)
(0.14197359 -0.84158623 -0.52112965)
(-1 0 -0)
(0.15133228 -0.81764716 -0.55547427)
(-1 0 0)
(0.16019801 -0.79282337 -0.58802015)
(-1 -0 0)
(0.16891703 -0.76618494 -0.62002232)
(-1 -0 0)
(0.17730633 -0.73823996 -0.65081812)
(-1 -0 0)
(0.185269 -0.70937878 -0.68004202)
(-1 -0 0)
(0.19305449 -0.67866435 -0.70862167)
(-1 -0 0)
(0.20041523 -0.64704749 -0.73563801)
(-1 -0 0)
(0.20737689 -0.61447053 -0.76119695)
(-1 -0 0)
(0.21411931 -0.58004089 -0.78594242)
(-1 0 -0)
(0.22028009 -0.54562572 -0.80855999)
(-1 0 -0)
(0.22619272 -0.50940576 -0.8302666)
(-1 0 0)
(0.23166388 -0.47248827 -0.85034504)
(-1 -0 0)
(-0.26284083 0.01063659 0.96478058)
(-1 0 0)
(-0.26272108 0.031918791 0.96434373)
(-1 0 0)
(-0.26248188 0.053263769 0.96346574)
(-1 0 0)
(-0.26210184 0.075644754 0.96207094)
(-1 0 0)
(-0.26164627 0.095788726 0.96039874)
(-1 0 0)
(-0.26100827 0.11828715 0.95806202)
(-1 0 0)
(-0.2603257 0.13835525 0.95555657)
(-1 0 0)
(-0.25948851 0.15953864 0.95247737)
(-1 0 0)
(-0.25851247 0.1810252 0.94889471)
(-1 0 0)
(-0.25742404 0.20223598 0.94489866)
(-1 0 0)
(-0.25620209 0.22356906 0.9404134)
(-1 0 0)
(-0.25495057 0.24339672 0.93581956)
(-1 0 0)
(-0.25355116 0.26370669 0.93068286)
(-1 0 0)
(-0.25195487 0.28501779 0.92481544)
(-1 0 0)
(-0.25020364 0.3065333 0.91838743)
(-1 0 0)
(-0.24858498 0.32503398 0.91244639)
(-1 0 0)
(-0.24656269 0.34661129 0.90502345)
(-1 0 0)
(-0.24459614 0.36621321 0.89780878)
(-1 0 0)
(-0.24249823 0.38587818 0.89010822)
(-1 0 0)
(-0.23539228 0.44502169 0.86402903)
(-1 0 0)
(-0.24027414 0.40550097 0.88195085)
(-1 0 0)
(-0.2380064 0.4244161 0.87362688)
(-1 0 0)
(-1 0 0)
(-0.2628557 0 0.96483516)
(-1 0 0)
(-0.00046815259 0.99999989 0)
(-1 0 0)
(-1 0 -0)
(-0 -1 0)
)

// normal volume types

505
(
0
0
0
0
0
0
0
0
0
0
0
0
0
0
0
0
0
0
0
0
0
0
0
0
0
0
0
0
0
0
0
0
0
0
0
0
0
0
0
0
0
0
0
0
0
0
0
0
0
0
0
0
0
0
0
0
0
0
0
0
0
0
0
0
0
0
0
0
0
0
0
0
0
0
0
0
0
0
0
0
0
0
0
0
0
0
0
0
0
0
0
0
0
0
0
0
0
0
0
0
0
0
0
0
0
0
0
0
0
0
0
0
0
0
0
0
0
0
0
0
0
0
0
0
0
0
0
0
0
0
0
0
0
0
0
0
0
0
0
0
0
0
0
0
0
0
0
0
0
0
0
0
0
0
0
0
0
0
0
0
0
0
0
0
0
0
0
0
0
0
0
0
0
0
0
0
0
0
0
0
0
0
0
0
0
0
0
0
0
0
0
0
0
0
0
0
0
0
0
0
0
0
0
0
0
0
0
0
0
0
0
0
0
0
0
0
0
0
0
0
0
0
0
0
0
0
0
0
0
0
0
0
0
0
0
0
0
0
0
0
0
0
0
0
0
0
0
0
0
0
0
0
0
0
0
0
0
0
0
0
0
0
0
0
0
0
0
0
0
0
0
0
0
0
0
0
0
0
0
0
0
0
0
0
0
0
0
0
0
0
0
0
0
0
0
0
0
0
0
0
0
0
0
0
0
0
0
0
0
0
0
0
0
0
0
0
0
0
0
0
0
0
0
0
0
0
0
0
0
0
0
0
0
0
0
0
0
0
0
0
0
0
0
0
0
0
0
0
0
0
0
0
0
0
0
0
0
0
0
0
0
0
0
0
0
0
0
0
0
0
0
0
0
0
0
0
0
0
0
0
0
0
0
0
0
0
0
0
0
0
0
0
0
0
0
0
0
0
0
0
0
0
0
0
0
0
0
0
0
0
0
0
0
0
0
0
0
0
0
0
0
0
0
0
0
0
0
0
0
0
0
0
0
0
0
0
0
0
0
0
0
0
0
0
0
0
0
0
0
0
0
0
0
0
0
0
0
0
0
0
0
0
0
0
0
0
0
0
0
0
0
0
0
0
0
0
0
0
0
0
0
0
0
0
0
0
0
0
0
0
0
0
0
0
0
0
0
0
0
0
0
0
0
0
0
)

// normalDirections

270
(
2(1 -1)
2(1 -1)
2(1 -1)
2(1 -1)
2(1 -1)
2(1 -1)
2(1 -1)
2(1 -1)
2(1 -1)
2(1 -1)
2(1 -1)
2(1 -1)
2(1 -1)
2(1 -1)
2(1 -1)
2(1 -1)
2(1 -1)
2(1 -1)
2(1 -1)
2(1 -1)
2(1 -1)
2(1 -1)
2(1 -1)
2(1 -1)
2(1 -1)
2(1 -1)
2(1 -1)
2(1 -1)
2(1 -1)
2(1 -1)
2(1 -1)
2(1 -1)
2(1 -1)
2(1 -1)
2(1 -1)
2(1 -1)
2(1 -1)
2(1 -1)
2(1 -1)
2(1 -1)
2(1 -1)
2(1 -1)
2(1 -1)
2(1 -1)
2(1 -1)
2(1 -1)
2(1 -1)
2(1 -1)
2(1 -1)
2(1 -1)
2(1 -1)
2(1 -1)
2(1 -1)
2(1 -1)
2(1 -1)
2(1 -1)
2(1 -1)
2(1 -1)
2(1 -1)
2(1 -1)
2(1 -1)
2(1 -1)
2(1 -1)
2(1 -1)
2(1 -1)
2(1 -1)
2(1 -1)
2(1 -1)
2(1 -1)
2(1 -1)
2(1 -1)
2(1 -1)
2(1 -1)
2(1 -1)
2(1 -1)
2(1 -1)
2(1 -1)
2(1 -1)
2(1 -1)
2(1 -1)
2(1 -1)
2(1 -1)
2(1 -1)
2(1 -1)
2(1 -1)
2(1 -1)
2(1 -1)
2(1 -1)
2(1 -1)
2(1 -1)
2(1 -1)
2(1 -1)
2(1 -1)
2(1 -1)
2(1 -1)
2(1 -1)
2(1 -1)
2(1 -1)
2(1 -1)
2(1 -1)
2(1 -1)
2(1 -1)
2(1 -1)
2(1 -1)
2(1 -1)
2(1 -1)
2(1 -1)
2(1 -1)
2(1 -1)
2(1 -1)
2(1 -1)
2(1 -1)
2(1 -1)
2(1 -1)
2(1 -1)
2(1 -1)
2(1 -1)
2(1 -1)
2(1 -1)
2(1 -1)
2(1 -1)
2(1 -1)
2(1 -1)
2(1 -1)
2(1 -1)
2(1 -1)
2(1 -1)
2(1 -1)
2(1 -1)
2(1 -1)
2(1 -1)
2(1 -1)
2(1 -1)
2(1 -1)
2(1 -1)
2(1 -1)
2(1 -1)
2(1 -1)
2(1 -1)
2(1 -1)
2(1 -1)
2(1 -1)
2(1 -1)
2(1 -1)
2(1 -1)
2(1 -1)
2(1 -1)
2(1 -1)
2(1 -1)
2(1 -1)
2(1 -1)
2(1 -1)
2(1 -1)
2(1 -1)
2(1 -1)
2(1 -1)
2(1 -1)
2(1 -1)
2(1 -1)
2(1 -1)
2(1 -1)
2(1 -1)
2(1 -1)
2(1 -1)
2(1 -1)
2(1 -1)
2(1 -1)
2(1 -1)
2(1 -1)
2(1 -1)
2(1 -1)
2(1 -1)
2(1 -1)
2(1 -1)
2(1 -1)
2(1 -1)
2(1 -1)
2(1 -1)
2(1 -1)
2(1 -1)
2(1 -1)
2(1 -1)
2(1 -1)
2(1 -1)
2(1 -1)
2(1 -1)
2(1 -1)
2(1 -1)
2(1 -1)
2(1 -1)
2(1 -1)
2(1 -1)
2(1 -1)
2(1 -1)
2(1 -1)
2(1 -1)
2(1 -1)
2(1 -1)
2(1 -1)
2(1 -1)
2(1 -1)
2(1 -1)
2(1 -1)
2(1 -1)
2(1 -1)
2(1 -1)
2(1 -1)
2(1 -1)
2(1 -1)
2(1 -1)
2(1 -1)
2(1 -1)
2(1 -1)
2(1 -1)
2(1 -1)
2(1 -1)
2(1 -1)
2(1 -1)
2(1 -1)
2(1 -1)
2(1 -1)
2(1 -1)
2(1 -1)
2(1 -1)
2(1 -1)
2(1 -1)
2(1 -1)
2(1 -1)
2(1 -1)
2(1 -1)
2(1 -1)
2(1 -1)
2(1 -1)
2(1 -1)
2(1 -1)
2(1 -1)
2(1 -1)
2(1 -1)
2(1 -1)
2(1 -1)
2(1 -1)
2(1 -1)
2(1 -1)
2(1 -1)
2(1 -1)
2(1 -1)
2(1 -1)
2(1 -1)
2(1 -1)
2(1 -1)
2(1 -1)
2(1 -1)
2(1 -1)
2(1 -1)
2(1 -1)
2(1 -1)
2(1 -1)
2(1 -1)
2(1 -1)
2(1 -1)
2(1 -1)
2(1 -1)
2(1 -1)
2(1 -1)
2(1 -1)
2(1 -1)
2(1 -1)
2(1 -1)
2(1 -1)
2(1 -1)
)

// edgeNormals

270
(
2(0 1)
2(2 3)
2(4 5)
2(6 7)
2(8 9)
2(10 11)
2(12 13)
2(14 15)
2(16 17)
2(18 19)
2(20 21)
2(22 23)
2(24 25)
2(26 27)
2(28 29)
2(30 31)
2(32 33)
2(34 35)
2(36 37)
2(38 39)
2(40 41)
2(42 43)
2(44 45)
2(46 47)
2(48 49)
2(50 51)
2(52 53)
2(54 55)
2(56 57)
2(58 57)
2(59 60)
2(61 62)
2(63 64)
2(65 66)
2(67 68)
2(69 70)
2(71 72)
2(73 74)
2(75 76)
2(77 78)
2(79 80)
2(81 82)
2(83 84)
2(85 86)
2(87 88)
2(89 90)
2(91 92)
2(93 94)
2(95 96)