/*--------------------------------*- C++ -*----------------------------------*\
| =========                 |                                                 |
| \\      /  F ield         | OpenFOAM: The Open Source CFD Toolbox           |
|  \\    /   O peration     | Version:  2406                                  |
|   \\  /    A nd           | Website:  www.openfoam.com                      |
|    \\/     M anipulation  |                                                 |
\*---------------------------------------------------------------------------*/
FoamFile
{
    version     2.0;
    format      ascii;
    arch        "LSB;label=32;scalar=64";
    class       extendedFeatureEdgeMesh;
    location    "constant/extendedFeatureEdgeMesh";
    object      hedgeFD.extendedFeatureEdgeMesh;
}
// * * * * * * * * * * * * * * * * * * * * * * * * * * * * * * * * * * * * * //

// points

2939
(
(0.285166 0.050000001 0.050000001)
(0.285166 0.050000001 0)
(0.285166 3.317613e-18 0)
(0.285166 -3.3306689e-17 0.050000001)
(-0.36626801 0.98870242 0)
(-0.36626801 -5.5511151e-17 0)
(-0.36626801 -5.5511151e-17 0.98870242)
(-0.36626801 0.98870242 0.98870242)
(3.6626799 1.9510249e-17 0)
(3.6626799 0.98870242 0)
(3.6626799 0.98870242 0.98870242)
(3.6626799 1.9510249e-17 0.98870242)
(0.36626801 0.055117998 0.044957999)
(0.36626801 0.050037999 0.02159)
(0.36626801 0.044957999 0.055117998)
(0.36626801 0.02159 0.050037999)
(0.185359 0.050037999 0.050037999)
(0.36626801 0.096012004 1.734723e-18)
(0.36626801 0.050037999 0.050037999)
(0.36626801 0.09887024 -1.734723e-18)
(0.36626801 -6.222212e-17 0.096012004)
(0.36626801 -6.7595539e-17 0.09887024)
(0.28702 0.050000869 0)
(8.0664642e-17 1.214306e-17 1.206715e-17)
(0.28702 -3.3307271e-17 0.050000869)
(0.21115661 0.055117998 0)
(0.2204235 0.055117998 0)
(0.22969051 0.055117998 0)
(0.23895741 0.055117998 0)
(0.2482243 0.055117998 0)
(0.25749069 0.055117998 0)
(0.26629841 0.055117998 0)
(0.2711606 0.055117998 0)
(0.27259761 0.055117998 0)
(0.285166 0.047870811 0)
(0.285166 0.0381197 0)
(0.285166 0.02950084 0)
(0.285166 0.019667231 0)
(0.285166 0.0098336134 0)
(0.285166 -6.550502e-18 0.0098336134)
(0.285166 -1.3101e-17 0.019667231)
(0.285166 -1.965151e-17 0.02950084)
(0.285166 -2.539282e-17 0.0381197)
(0.285166 -2.9527049e-17 0.044326011)
(0.285166 -3.1888368e-17 0.047870811)
(0.285166 0.044326011 0)
(0.185166 0.050000001 0)
(0.19382951 0.051706001 0)
(0.2024931 0.053412002 0)
(0.0370332 0.0099999998 0)
(0.0462915 0.0125 0)
(0.0555498 0.015 0)
(0.0648081 0.0175 0)
(0.074066401 0.02 0)
(0.083324701 0.022500001 0)
(0.092583001 0.025 0)
(0.1018413 0.0275 0)
(0.1110996 0.029999999 0)
(0.1203579 0.032499999 0)
(0.1296162 0.035 0)
(0.1388745 0.037500001 0)
(0.1481328 0.039999999 0)
(0.1573911 0.0425 0)
(0.1666494 0.045000002 0)
(0.1759077 0.047499999 0)
(0.0277749 0.0074999998 0)
(0.0185166 0.0049999999 0)
(0.0092583001 0.0024999999 0)
(0.28702 0.054203521 0)
(0.28702 0.054025751 0)
(0.28702 0.053155929 0)
(0.28702 0.051862869 0)
(0.2920683 0.060581289 0)
(0.29527819 0.062237669 0)
(0.2987017 0.064004302 0)
(0.30196461 0.065688036 0)
(0.3051745 0.067344427 0)
(0.30838439 0.06900081 0)
(0.31159431 0.070657201 0)
(0.3148042 0.072313577 0)
(0.31801409 0.073969968 0)
(0.32132089 0.075676396 0)
(0.32453081 0.07733278 0)
(0.3277407 0.07898917 0)
(0.33111259 0.080729127 0)
(0.33432251 0.082385518 0)
(0.33771971 0.08413858 0)
(0.3409296 0.085794963 0)
(0.34428731 0.087527633 0)
(0.34757781 0.089225627 0)
(0.35096189 0.090971917 0)
(0.3543753 0.092733324 0)
(0.3574512 0.094320551 0)
(0.3599979 0.095634691 0)
(0.36327031 0.097323373 0)
(0.28551319 0.05719867 0)
(0.2869775 0.057954319 0)
(0.28901231 0.059004322 0)
(0.36431301 0.095003173 0)
(0.362358 0.093994327 0)
(0.360403 0.092985503 0)
(0.358448 0.091976672 0)
(0.356493 0.090967841 0)
(0.35453799 0.089959003 0)
(0.35258299 0.088950172 0)
(0.35062799 0.087941341 0)
(0.34867299 0.08693251 0)
(0.34671789 0.085923672 0)
(0.34476289 0.084914841 0)
(0.34280789 0.08390601 0)
(0.34085289 0.082897171 0)
(0.33889791 0.08188834 0)
(0.33694291 0.080879509 0)
(0.33498791 0.079870678 0)
(0.33303291 0.07886184 0)
(0.3310779 0.077853009 0)
(0.3291229 0.076844178 0)
(0.3271679 0.075835347 0)
(0.3252129 0.074826509 0)
(0.32325789 0.073817678 0)
(0.32130289 0.072808847 0)
(0.31934789 0.071800008 0)
(0.31739289 0.070791177 0)
(0.31543791 0.069782346 0)
(0.31348291 0.068773523 0)
(0.31152791 0.067764677 0)
(0.30957291 0.066755854 0)
(0.30761781 0.065747023 0)
(0.30566281 0.064738192 0)
(0.30370781 0.063729353 0)
(0.30175281 0.062720522 0)
(0.2997978 0.061711691 0)
(0.2978428 0.060702849 0)
(0.2958878 0.059694018 0)
(0.29014489 0.056730539 0)
(0.2885991 0.05593285 0)
(0.2919789 0.05767693 0)
(0.2939328 0.058685191 0)
(0.27766341 0.055358268 0)
(0.27891141 0.055498451 0)
(0.28004101 0.055658739 0)
(0.2811656 0.055854902 0)
(0.2822817 0.05609313 0)
(0.28338489 0.0563832 0)
(0.28446811 0.056741629 0)
(0.27601919 0.05522567 0)
(0.27487949 0.055165511 0)
(0.2737388 0.05512983 0)
(0.28764921 0.055313911 0)
(0.28711611 0.0546415 0)
(0.28706351 0.054498632 0)
(0.28703099 0.054351699 0)
(0.2872884 0.054933328 0)
(0.27259761 -3.671596e-17 0.055117998)
(0.270087 -3.671596e-17 0.055117998)
(0.2640852 -3.671596e-17 0.055117998)
(0.25527889 -3.671596e-17 0.055117998)
(0.2464544 -3.671596e-17 0.055117998)
(0.23762999 -3.671596e-17 0.055117998)
(0.2288055 -3.671596e-17 0.055117998)
(0.2199811 -3.671596e-17 0.055117998)
(0.21115661 -3.671596e-17 0.055117998)
(0.2024931 -3.557954e-17 0.053412002)
(0.19382951 -3.4443119e-17 0.051706001)
(0.185166 -3.3306689e-17 0.050000001)
(0.1759077 -3.1641359e-17 0.047499999)
(0.1666494 -2.997602e-17 0.045000002)
(0.1573911 -2.831069e-17 0.0425)
(0.1481328 -2.664535e-17 0.039999999)
(0.1388745 -2.4980021e-17 0.037500001)
(0.1296162 -2.3314679e-17 0.035)
(0.1203579 -2.164935e-17 0.032499999)
(0.1110996 -1.998401e-17 0.029999999)
(0.1018413 -1.8318681e-17 0.0275)
(0.092583001 -1.6653349e-17 0.025)
(0.083324701 -1.498801e-17 0.022500001)
(0.074066401 -1.332268e-17 0.02)
(0.0648081 -1.165734e-17 0.0175)
(0.0555498 -9.9920068e-18 0.015)
(0.0462915 -8.326673e-18 0.0125)
(0.0370332 -6.661338e-18 0.0099999998)
(0.0277749 -4.9960038e-18 0.0074999998)
(0.0185166 -3.330669e-18 0.0049999999)
(0.0092583001 -1.665335e-18 0.0024999999)
(0.28702 -3.5988379e-17 0.054025751)
(0.28702 -3.6106801e-17 0.054203521)
(0.28702 -3.4547609e-17 0.051862869)
(0.28702 -3.5408958e-17 0.053155929)
(0.36431301 -6.3284823e-17 0.095003173)
(0.2885991 -3.7258759e-17 0.05593285)
(0.29014489 -3.779013e-17 0.056730539)
(0.2919789 -3.8420551e-17 0.05767693)
(0.2939328 -3.9092188e-17 0.058685191)
(0.2958878 -3.976421e-17 0.059694018)
(0.2978428 -4.0436221e-17 0.060702849)
(0.2997978 -4.1108239e-17 0.061711691)
(0.30175281 -4.1780261e-17 0.062720522)
(0.30370781 -4.2452279e-17 0.063729353)
(0.30566281 -4.312429e-17 0.064738192)
(0.30761781 -4.3796308e-17 0.065747023)
(0.30957291 -4.446833e-17 0.066755854)
(0.31152791 -4.5140351e-17 0.067764677)
(0.31348291 -4.5812359e-17 0.068773523)
(0.31543791 -4.6484381e-17 0.069782346)
(0.31739289 -4.7156399e-17 0.070791177)
(0.31934789 -4.782842e-17 0.071800008)
(0.32130289 -4.8500442e-17 0.072808847)
(0.32325789 -4.917245e-17 0.073817678)
(0.3252129 -4.9844471e-17 0.074826509)
(0.3271679 -5.0516489e-17 0.075835347)
(0.3291229 -5.118851e-17 0.076844178)
(0.3310779 -5.1860519e-17 0.077853009)
(0.33303291 -5.253254e-17 0.07886184)
(0.33498791 -5.3204561e-17 0.079870678)
(0.33694291 -5.3876579e-17 0.080879509)
(0.33889791 -5.4548591e-17 0.08188834)
(0.34085289 -5.5220609e-17 0.082897171)
(0.34280789 -5.5892627e-17 0.08390601)
(0.34476289 -5.6564648e-17 0.084914841)
(0.34671789 -5.7236663e-17 0.085923672)
(0.34867299 -5.7908678e-17 0.08693251)
(0.35062799 -5.8580699e-17 0.087941341)
(0.35258299 -5.9252721e-17 0.088950172)
(0.35453799 -5.9924729e-17 0.089959003)
(0.356493 -6.059675e-17 0.090967841)
(0.358448 -6.1268772e-17 0.091976672)
(0.360403 -6.1940793e-17 0.092985503)
(0.362358 -6.2612801e-17 0.093994327)
(0.364133 -6.5126927e-17 0.097768538)
(0.36097541 -6.4041508e-17 0.096139111)
(0.35839131 -6.3153268e-17 0.09480568)
(0.35535839 -6.2110722e-17 0.093240596)
(0.35213289 -6.100197e-17 0.091576137)
(0.34882289 -5.9864193e-17 0.089868113)
(0.34548759 -5.8717707e-17 0.088147007)
(0.34216511 -5.7575629e-17 0.086432531)
(0.33901891 -5.649414e-17 0.08480899)
(0.33568701 -5.5348848e-17 0.083089687)
(0.33253819 -5.4266459e-17 0.081464797)
(0.32939199 -5.318497e-17 0.079841264)
(0.3260988 -5.2052961e-17 0.078141898)
(0.3229526 -5.0971472e-17 0.076518357)
(0.31964821 -4.983561e-17 0.074813209)
(0.31620711 -4.8652759e-17 0.073037513)
(0.31306079 -4.757126e-17 0.071413979)
(0.30991459 -4.6489771e-17 0.069790438)
(0.30676839 -4.5408282e-17 0.068166912)
(0.3036221 -4.4326789e-17 0.06654337)
(0.3004759 -4.32453e-17 0.064919837)
(0.29706499 -4.2072841e-17 0.063159741)
(0.28738409 -3.87451e-17 0.058164138)
(0.28551319 -3.8101971e-17 0.05719867)
(0.29391879 -4.0991349e-17 0.061536212)
(0.29069531 -3.9883301e-17 0.059872799)
(0.2839573 -3.8203009e-17 0.056561541)
(0.28228509 -3.799536e-17 0.05609395)
(0.28047609 -3.7833719e-17 0.055729959)
(0.27864981 -3.7716511e-17 0.055466019)
(0.27638981 -3.7620889e-17 0.055250712)
(0.27445161 -3.7575851e-17 0.055149298)
(0.28703099 -3.6172602e-17 0.054351699)
(0.28706351 -3.623785e-17 0.054498632)
(0.28711611 -3.6301301e-17 0.0546415)
(0.2872884 -3.64309e-17 0.054933328)
(0.28764921 -3.659991e-17 0.055313911)
(-0.36626801 0.98870242 0.0099868933)
(-0.36626801 0.97871548 0)
(-0.36626801 0.9687286 0)
(-0.36626801 0.95874172 0)
(-0.36626801 0.94875479 0)
(-0.36626801 0.93876803 0)
(-0.36626801 0.92878109 0)
(-0.36626801 0.91879421 0)
(-0.36626801 0.90880728 0)
(-0.36626801 0.8988204 0)
(-0.36626801 0.88883352 0)
(-0.36626801 0.87884659 0)
(-0.36626801 0.86885971 0)
(-0.36626801 0.85887277 0)
(-0.36626801 0.84888589 0)
(-0.36626801 0.83889902 0)
(-0.36626801 0.82891208 0)
(-0.36626801 0.8189252 0)
(-0.36626801 0.80893832 0)
(-0.36626801 0.79895151 0)
(-0.36626801 0.78896463 0)
(-0.36626801 0.77897769 0)
(-0.36626801 0.76899081 0)
(-0.36626801 0.75900388 0)
(-0.36626801 0.749017 0)
(-0.36626801 0.73903012 0)
(-0.36626801 0.72904319 0)
(-0.36626801 0.71905631 0)
(-0.36626801 0.70906937 0)
(-0.36626801 0.69908249 0)
(-0.36626801 0.68909562 0)
(-0.36626801 0.67910868 0)
(-0.36626801 0.6691218 0)
(-0.36626801 0.65913492 0)
(-0.36626801 0.64914811 0)
(-0.36626801 0.63916123 0)
(-0.36626801 0.62917429 0)
(-0.36626801 0.61918741 0)
(-0.36626801 0.60920048 0)
(-0.36626801 0.5992136 0)
(-0.36626801 0.58922672 0)
(-0.36626801 0.57923979 0)
(-0.36626801 0.56925291 0)
(-0.36626801 0.55926597 0)
(-0.36626801 0.54927909 0)
(-0.36626801 0.53929222 0)
(-0.36626801 0.52930528 0)
(-0.36626801 0.5193184 0)
(-0.36626801 0.50933158 0)
(-0.36626801 0.49934471 0)
(-0.36626801 0.4893578 0)
(-0.36626801 0.47937089 0)
(-0.36626801 0.46938401 0)
(-0.36626801 0.45939711 0)
(-0.36626801 0.4494102 0)
(-0.36626801 0.43942329 0)
(-0.36626801 0.42943639 0)
(-0.36626801 0.41944951 0)
(-0.36626801 0.4094626 0)
(-0.36626801 0.39947569 0)
(-0.36626801 0.38948879 0)
(-0.36626801 0.37950191 0)
(-0.36626801 0.369515 0)
(-0.36626801 0.35952821 0)
(-0.36626801 0.34954131 0)
(-0.36626801 0.3395544 0)
(-0.36626801 0.32956749 0)
(-0.36626801 0.31958061 0)
(-0.36626801 0.30959371 0)
(-0.36626801 0.2996068 0)
(-0.36626801 0.28961989 0)
(-0.36626801 0.27963299 0)
(-0.36626801 0.26964611 0)
(-0.36626801 0.2596592 0)
(-0.36626801 0.24967229 0)
(-0.36626801 0.2396854 0)
(-0.36626801 0.22969849 0)
(-0.36626801 0.2197116 0)
(-0.36626801 0.2097248 0)
(-0.36626801 0.19973791 0)
(-0.36626801 0.189751 0)
(-0.36626801 0.17976411 0)
(-0.36626801 0.1697772 0)
(-0.36626801 0.15979031 0)
(-0.36626801 0.1498034 0)
(-0.36626801 0.13981649 0)
(-0.36626801 0.1298296 0)
(-0.36626801 0.1198427 0)
(-0.36626801 0.1098558 0)
(-0.36626801 0.099868931 0)
(-0.36626801 0.089882039 0)
(-0.36626801 0.079895154 0)
(-0.36626801 0.069908246 0)
(-0.36626801 0.059921362 0)
(-0.36626801 0.049934469 0)
(-0.36626801 0.039947569 0)
(-0.36626801 0.029960681 0)
(-0.36626801 0.01997379 0)
(-0.36626801 0.0099868933 0)
(-0.36626801 -5.5511151e-17 0.0099868933)
(-0.36626801 -5.5511151e-17 0.01997379)
(-0.36626801 -5.5511151e-17 0.029960681)
(-0.36626801 -5.5511151e-17 0.039947569)
(-0.36626801 -5.5511151e-17 0.049934469)
(-0.36626801 -5.5511151e-17 0.059921362)
(-0.36626801 -5.5511151e-17 0.069908246)
(-0.36626801 -5.5511151e-17 0.079895154)
(-0.36626801 -5.5511151e-17 0.089882039)
(-0.36626801 -5.5511151e-17 0.099868931)
(-0.36626801 -5.5511151e-17 0.1098558)
(-0.36626801 -5.5511151e-17 0.1198427)
(-0.36626801 -5.5511151e-17 0.1298296)
(-0.36626801 -5.5511151e-17 0.13981649)
(-0.36626801 -5.5511151e-17 0.1498034)
(-0.36626801 -5.5511151e-17 0.15979031)
(-0.36626801 -5.5511151e-17 0.1697772)
(-0.36626801 -5.5511151e-17 0.17976411)
(-0.36626801 -5.5511151e-17 0.189751)
(-0.36626801 -5.5511151e-17 0.19973791)
(-0.36626801 -5.5511151e-17 0.2097248)
(-0.36626801 -5.5511151e-17 0.2197116)
(-0.36626801 -5.5511151e-17 0.22969849)
(-0.36626801 -5.5511151e-17 0.2396854)
(-0.36626801 -5.5511151e-17 0.24967229)
(-0.36626801 -5.5511151e-17 0.2596592)
(-0.36626801 -5.5511151e-17 0.26964611)
(-0.36626801 -5.5511151e-17 0.27963299)
(-0.36626801 -5.5511151e-17 0.28961989)
(-0.36626801 -5.5511151e-17 0.2996068)
(-0.36626801 -5.5511151e-17 0.30959371)
(-0.36626801 -5.5511151e-17 0.31958061)
(-0.36626801 -5.5511151e-17 0.32956749)
(-0.36626801 -5.5511151e-17 0.3395544)
(-0.36626801 -5.5511151e-17 0.34954131)
(-0.36626801 -5.5511151e-17 0.35952821)
(-0.36626801 -5.5511151e-17 0.369515)
(-0.36626801 -5.5511151e-17 0.37950191)
(-0.36626801 -5.5511151e-17 0.38948879)
(-0.36626801 -5.5511151e-17 0.39947569)
(-0.36626801 -5.5511151e-17 0.4094626)
(-0.36626801 -5.5511151e-17 0.41944951)
(-0.36626801 -5.5511151e-17 0.42943639)
(-0.36626801 -5.5511151e-17 0.43942329)
(-0.36626801 -5.5511151e-17 0.4494102)
(-0.36626801 -5.5511151e-17 0.45939711)
(-0.36626801 -5.5511151e-17 0.46938401)
(-0.36626801 -5.5511151e-17 0.47937089)
(-0.36626801 -5.5511151e-17 0.4893578)
(-0.36626801 -5.5511151e-17 0.49934471)
(-0.36626801 -5.5511151e-17 0.50933158)
(-0.36626801 -5.5511151e-17 0.5193184)
(-0.36626801 -5.5511151e-17 0.52930528)
(-0.36626801 -5.5511151e-17 0.53929222)
(-0.36626801 -5.5511151e-17 0.54927909)
(-0.36626801 -5.5511151e-17 0.55926597)
(-0.36626801 -5.5511151e-17 0.56925291)
(-0.36626801 -5.5511151e-17 0.57923979)
(-0.36626801 -5.5511151e-17 0.58922672)
(-0.36626801 -5.5511151e-17 0.5992136)
(-0.36626801 -5.5511151e-17 0.60920048)
(-0.36626801 -5.5511151e-17 0.61918741)
(-0.36626801 -5.5511151e-17 0.62917429)
(-0.36626801 -5.5511151e-17 0.63916123)
(-0.36626801 -5.5511151e-17 0.64914811)
(-0.36626801 -5.5511151e-17 0.65913492)
(-0.36626801 -5.5511151e-17 0.6691218)
(-0.36626801 -5.5511151e-17 0.67910868)
(-0.36626801 -5.5511151e-17 0.68909562)
(-0.36626801 -5.5511151e-17 0.69908249)
(-0.36626801 -5.5511151e-17 0.70906937)
(-0.36626801 -5.5511151e-17 0.71905631)
(-0.36626801 -5.5511151e-17 0.72904319)
(-0.36626801 -5.5511151e-17 0.73903012)
(-0.36626801 -5.5511151e-17 0.749017)
(-0.36626801 -5.5511151e-17 0.75900388)
(-0.36626801 -5.5511151e-17 0.76899081)
(-0.36626801 -5.5511151e-17 0.77897769)
(-0.36626801 -5.5511151e-17 0.78896463)
(-0.36626801 -5.5511151e-17 0.79895151)
(-0.36626801 -5.5511151e-17 0.80893832)
(-0.36626801 -5.5511151e-17 0.8189252)
(-0.36626801 -5.5511151e-17 0.82891208)
(-0.36626801 -5.5511151e-17 0.83889902)
(-0.36626801 -5.5511151e-17 0.84888589)
(-0.36626801 -5.5511151e-17 0.85887277)
(-0.36626801 -5.5511151e-17 0.86885971)
(-0.36626801 -5.5511151e-17 0.87884659)
(-0.36626801 -5.5511151e-17 0.88883352)
(-0.36626801 -5.5511151e-17 0.8988204)
(-0.36626801 -5.5511151e-17 0.90880728)
(-0.36626801 -5.5511151e-17 0.91879421)
(-0.36626801 -5.5511151e-17 0.92878109)
(-0.36626801 -5.5511151e-17 0.93876803)
(-0.36626801 -5.5511151e-17 0.94875479)
(-0.36626801 -5.5511151e-17 0.95874172)
(-0.36626801 -5.5511151e-17 0.9687286)
(-0.36626801 -5.5511151e-17 0.97871548)
(-0.36626801 0.0099868933 0.98870242)
(-0.36626801 0.01997379 0.98870242)
(-0.36626801 0.029960681 0.98870242)
(-0.36626801 0.039947569 0.98870242)
(-0.36626801 0.049934469 0.98870242)
(-0.36626801 0.059921362 0.98870242)
(-0.36626801 0.069908246 0.98870242)
(-0.36626801 0.079895154 0.98870242)
(-0.36626801 0.089882039 0.98870242)
(-0.36626801 0.099868931 0.98870242)
(-0.36626801 0.1098558 0.98870242)
(-0.36626801 0.1198427 0.98870242)
(-0.36626801 0.1298296 0.98870242)
(-0.36626801 0.13981649 0.98870242)
(-0.36626801 0.1498034 0.98870242)
(-0.36626801 0.15979031 0.98870242)
(-0.36626801 0.1697772 0.98870242)
(-0.36626801 0.17976411 0.98870242)
(-0.36626801 0.189751 0.98870242)
(-0.36626801 0.19973791 0.98870242)
(-0.36626801 0.2097248 0.98870242)
(-0.36626801 0.2197116 0.98870242)
(-0.36626801 0.22969849 0.98870242)
(-0.36626801 0.2396854 0.98870242)
(-0.36626801 0.24967229 0.98870242)
(-0.36626801 0.2596592 0.98870242)
(-0.36626801 0.26964611 0.98870242)
(-0.36626801 0.27963299 0.98870242)
(-0.36626801 0.28961989 0.98870242)
(-0.36626801 0.2996068 0.98870242)
(-0.36626801 0.30959371 0.98870242)
(-0.36626801 0.31958061 0.98870242)
(-0.36626801 0.32956749 0.98870242)
(-0.36626801 0.3395544 0.98870242)
(-0.36626801 0.34954131 0.98870242)
(-0.36626801 0.35952821 0.98870242)
(-0.36626801 0.369515 0.98870242)
(-0.36626801 0.37950191 0.98870242)
(-0.36626801 0.38948879 0.98870242)
(-0.36626801 0.39947569 0.98870242)
(-0.36626801 0.4094626 0.98870242)
(-0.36626801 0.41944951 0.98870242)
(-0.36626801 0.42943639 0.98870242)
(-0.36626801 0.43942329 0.98870242)
(-0.36626801 0.4494102 0.98870242)
(-0.36626801 0.45939711 0.98870242)
(-0.36626801 0.46938401 0.98870242)
(-0.36626801 0.47937089 0.98870242)
(-0.36626801 0.4893578 0.98870242)
(-0.36626801 0.49934471 0.98870242)
(-0.36626801 0.50933158 0.98870242)
(-0.36626801 0.5193184 0.98870242)
(-0.36626801 0.52930528 0.98870242)
(-0.36626801 0.53929222 0.98870242)
(-0.36626801 0.54927909 0.98870242)
(-0.36626801 0.55926597 0.98870242)
(-0.36626801 0.56925291 0.98870242)
(-0.36626801 0.57923979 0.98870242)
(-0.36626801 0.58922672 0.98870242)
(-0.36626801 0.5992136 0.98870242)
(-0.36626801 0.60920048 0.98870242)
(-0.36626801 0.61918741 0.98870242)
(-0.36626801 0.62917429 0.98870242)
(-0.36626801 0.63916123 0.98870242)
(-0.36626801 0.64914811 0.98870242)
(-0.36626801 0.65913492 0.98870242)
(-0.36626801 0.6691218 0.98870242)
(-0.36626801 0.67910868 0.98870242)
(-0.36626801 0.68909562 0.98870242)
(-0.36626801 0.69908249 0.98870242)
(-0.36626801 0.70906937 0.98870242)
(-0.36626801 0.71905631 0.98870242)
(-0.36626801 0.72904319 0.98870242)
(-0.36626801 0.73903012 0.98870242)
(-0.36626801 0.749017 0.98870242)
(-0.36626801 0.75900388 0.98870242)
(-0.36626801 0.76899081 0.98870242)
(-0.36626801 0.77897769 0.98870242)
(-0.36626801 0.78896463 0.98870242)
(-0.36626801 0.79895151 0.98870242)
(-0.36626801 0.80893832 0.98870242)
(-0.36626801 0.8189252 0.98870242)
(-0.36626801 0.82891208 0.98870242)
(-0.36626801 0.83889902 0.98870242)
(-0.36626801 0.84888589 0.98870242)
(-0.36626801 0.85887277 0.98870242)
(-0.36626801 0.86885971 0.98870242)
(-0.36626801 0.87884659 0.98870242)
(-0.36626801 0.88883352 0.98870242)
(-0.36626801 0.8988204 0.98870242)
(-0.36626801 0.90880728 0.98870242)
(-0.36626801 0.91879421 0.98870242)
(-0.36626801 0.92878109 0.98870242)
(-0.36626801 0.93876803 0.98870242)
(-0.36626801 0.94875479 0.98870242)
(-0.36626801 0.95874172 0.98870242)
(-0.36626801 0.9687286 0.98870242)
(-0.36626801 0.97871548 0.98870242)
(-0.36626801 0.98870242 0.97871548)
(-0.36626801 0.98870242 0.9687286)
(-0.36626801 0.98870242 0.95874172)
(-0.36626801 0.98870242 0.94875479)
(-0.36626801 0.98870242 0.93876803)
(-0.36626801 0.98870242 0.92878109)
(-0.36626801 0.98870242 0.91879421)
(-0.36626801 0.98870242 0.90880728)
(-0.36626801 0.98870242 0.8988204)
(-0.36626801 0.98870242 0.88883352)
(-0.36626801 0.98870242 0.87884659)
(-0.36626801 0.98870242 0.86885971)
(-0.36626801 0.98870242 0.85887277)
(-0.36626801 0.98870242 0.84888589)
(-0.36626801 0.98870242 0.83889902)
(-0.36626801 0.98870242 0.82891208)
(-0.36626801 0.98870242 0.8189252)
(-0.36626801 0.98870242 0.80893832)
(-0.36626801 0.98870242 0.79895151)
(-0.36626801 0.98870242 0.78896463)
(-0.36626801 0.98870242 0.77897769)
(-0.36626801 0.98870242 0.76899081)
(-0.36626801 0.98870242 0.75900388)
(-0.36626801 0.98870242 0.749017)
(-0.36626801 0.98870242 0.73903012)
(-0.36626801 0.98870242 0.72904319)
(-0.36626801 0.98870242 0.71905631)
(-0.36626801 0.98870242 0.70906937)
(-0.36626801 0.98870242 0.69908249)
(-0.36626801 0.98870242 0.68909562)
(-0.36626801 0.98870242 0.67910868)
(-0.36626801 0.98870242 0.6691218)
(-0.36626801 0.98870242 0.65913492)
(-0.36626801 0.98870242 0.64914811)
(-0.36626801 0.98870242 0.63916123)
(-0.36626801 0.98870242 0.62917429)
(-0.36626801 0.98870242 0.61918741)
(-0.36626801 0.98870242 0.60920048)
(-0.36626801 0.98870242 0.5992136)
(-0.36626801 0.98870242 0.58922672)
(-0.36626801 0.98870242 0.57923979)
(-0.36626801 0.98870242 0.56925291)
(-0.36626801 0.98870242 0.55926597)
(-0.36626801 0.98870242 0.54927909)
(-0.36626801 0.98870242 0.53929222)
(-0.36626801 0.98870242 0.52930528)
(-0.36626801 0.98870242 0.5193184)
(-0.36626801 0.98870242 0.50933158)
(-0.36626801 0.98870242 0.49934471)
(-0.36626801 0.98870242 0.4893578)
(-0.36626801 0.98870242 0.47937089)
(-0.36626801 0.98870242 0.46938401)
(-0.36626801 0.98870242 0.45939711)
(-0.36626801 0.98870242 0.4494102)
(-0.36626801 0.98870242 0.43942329)
(-0.36626801 0.98870242 0.42943639)
(-0.36626801 0.98870242 0.41944951)
(-0.36626801 0.98870242 0.4094626)
(-0.36626801 0.98870242 0.39947569)
(-0.36626801 0.98870242 0.38948879)
(-0.36626801 0.98870242 0.37950191)
(-0.36626801 0.98870242 0.369515)
(-0.36626801 0.98870242 0.35952821)
(-0.36626801 0.98870242 0.34954131)
(-0.36626801 0.98870242 0.3395544)
(-0.36626801 0.98870242 0.32956749)
(-0.36626801 0.98870242 0.31958061)
(-0.36626801 0.98870242 0.30959371)
(-0.36626801 0.98870242 0.2996068)
(-0.36626801 0.98870242 0.28961989)
(-0.36626801 0.98870242 0.27963299)
(-0.36626801 0.98870242 0.26964611)
(-0.36626801 0.98870242 0.2596592)
(-0.36626801 0.98870242 0.24967229)
(-0.36626801 0.98870242 0.2396854)
(-0.36626801 0.98870242 0.22969849)
(-0.36626801 0.98870242 0.2197116)
(-0.36626801 0.98870242 0.2097248)
(-0.36626801 0.98870242 0.19973791)
(-0.36626801 0.98870242 0.189751)
(-0.36626801 0.98870242 0.17976411)
(-0.36626801 0.98870242 0.1697772)
(-0.36626801 0.98870242 0.15979031)
(-0.36626801 0.98870242 0.1498034)
(-0.36626801 0.98870242 0.13981649)
(-0.36626801 0.98870242 0.1298296)
(-0.36626801 0.98870242 0.1198427)
(-0.36626801 0.98870242 0.1098558)
(-0.36626801 0.98870242 0.099868931)
(-0.36626801 0.98870242 0.089882039)
(-0.36626801 0.98870242 0.079895154)
(-0.36626801 0.98870242 0.069908246)
(-0.36626801 0.98870242 0.059921362)
(-0.36626801 0.98870242 0.049934469)
(-0.36626801 0.98870242 0.039947569)
(-0.36626801 0.98870242 0.029960681)
(-0.36626801 0.98870242 0.01997379)
(3.6626799 1.9510249e-17 0.0099868933)
(3.6626799 0.0099868933 0)
(3.6626799 0.01997379 0)
(3.6626799 0.029960681 0)
(3.6626799 0.039947569 0)
(3.6626799 0.049934469 0)
(3.6626799 0.059921362 0)
(3.6626799 0.069908246 0)
(3.6626799 0.079895154 0)
(3.6626799 0.089882039 0)
(3.6626799 0.099868931 0)
(3.6626799 0.1098558 0)
(3.6626799 0.1198427 0)
(3.6626799 0.1298296 0)
(3.6626799 0.13981649 0)
(3.6626799 0.1498034 0)
(3.6626799 0.15979031 0)
(3.6626799 0.1697772 0)
(3.6626799 0.17976411 0)
(3.6626799 0.189751 0)
(3.6626799 0.19973791 0)
(3.6626799 0.2097248 0)
(3.6626799 0.2197116 0)
(3.6626799 0.22969849 0)
(3.6626799 0.2396854 0)
(3.6626799 0.24967229 0)
(3.6626799 0.2596592 0)
(3.6626799 0.26964611 0)
(3.6626799 0.27963299 0)
(3.6626799 0.28961989 0)
(3.6626799 0.2996068 0)
(3.6626799 0.30959371 0)
(3.6626799 0.31958061 0)
(3.6626799 0.32956749 0)
(3.6626799 0.3395544 0)
(3.6626799 0.34954131 0)
(3.6626799 0.35952821 0)
(3.6626799 0.369515 0)
(3.6626799 0.37950191 0)
(3.6626799 0.38948879 0)
(3.6626799 0.39947569 0)
(3.6626799 0.4094626 0)
(3.6626799 0.41944951 0)
(3.6626799 0.42943639 0)
(3.6626799 0.43942329 0)
(3.6626799 0.4494102 0)
(3.6626799 0.45939711 0)
(3.6626799 0.46938401 0)
(3.6626799 0.47937089 0)
(3.6626799 0.4893578 0)
(3.6626799 0.49934471 0)
(3.6626799 0.50933158 0)
(3.6626799 0.5193184 0)
(3.6626799 0.52930528 0)
(3.6626799 0.53929222 0)
(3.6626799 0.54927909 0)
(3.6626799 0.55926597 0)
(3.6626799 0.56925291 0)
(3.6626799 0.57923979 0)
(3.6626799 0.58922672 0)
(3.6626799 0.5992136 0)
(3.6626799 0.60920048 0)
(3.6626799 0.61918741 0)
(3.6626799 0.62917429 0)
(3.6626799 0.63916123 0)
(3.6626799 0.64914811 0)
(3.6626799 0.65913492 0)
(3.6626799 0.6691218 0)
(3.6626799 0.67910868 0)
(3.6626799 0.68909562 0)
(3.6626799 0.69908249 0)
(3.6626799 0.70906937 0)
(3.6626799 0.71905631 0)
(3.6626799 0.72904319 0)
(3.6626799 0.73903012 0)
(3.6626799 0.749017 0)
(3.6626799 0.75900388 0)
(3.6626799 0.76899081 0)
(3.6626799 0.77897769 0)
(3.6626799 0.78896463 0)
(3.6626799 0.79895151 0)
(3.6626799 0.80893832 0)
(3.6626799 0.8189252 0)
(3.6626799 0.82891208 0)
(3.6626799 0.83889902 0)
(3.6626799 0.84888589 0)
(3.6626799 0.85887277 0)
(3.6626799 0.86885971 0)
(3.6626799 0.87884659 0)
(3.6626799 0.88883352 0)
(3.6626799 0.8988204 0)
(3.6626799 0.90880728 0)
(3.6626799 0.91879421 0)
(3.6626799 0.92878109 0)
(3.6626799 0.93876803 0)
(3.6626799 0.94875479 0)
(3.6626799 0.95874172 0)
(3.6626799 0.9687286 0)
(3.6626799 0.97871548 0)
(3.6626799 0.98870242 0.0099868933)
(3.6626799 0.98870242 0.01997379)
(3.6626799 0.98870242 0.029960681)
(3.6626799 0.98870242 0.039947569)
(3.6626799 0.98870242 0.049934469)
(3.6626799 0.98870242 0.059921362)
(3.6626799 0.98870242 0.069908246)
(3.6626799 0.98870242 0.079895154)
(3.6626799 0.98870242 0.089882039)
(3.6626799 0.98870242 0.099868931)
(3.6626799 0.98870242 0.1098558)
(3.6626799 0.98870242 0.1198427)
(3.6626799 0.98870242 0.1298296)
(3.6626799 0.98870242 0.13981649)
(3.6626799 0.98870242 0.1498034)
(3.6626799 0.98870242 0.15979031)
(3.6626799 0.98870242 0.1697772)
(3.6626799 0.98870242 0.17976411)
(3.6626799 0.98870242 0.189751)
(3.6626799 0.98870242 0.19973791)
(3.6626799 0.98870242 0.2097248)
(3.6626799 0.98870242 0.2197116)
(3.6626799 0.98870242 0.22969849)
(3.6626799 0.98870242 0.2396854)
(3.6626799 0.98870242 0.24967229)
(3.6626799 0.98870242 0.2596592)
(3.6626799 0.98870242 0.26964611)
(3.6626799 0.98870242 0.27963299)
(3.6626799 0.98870242 0.28961989)
(3.6626799 0.98870242 0.2996068)
(3.6626799 0.98870242 0.30959371)
(3.6626799 0.98870242 0.31958061)
(3.6626799 0.98870242 0.32956749)
(3.6626799 0.98870242 0.3395544)
(3.6626799 0.98870242 0.34954131)
(3.6626799 0.98870242 0.35952821)
(3.6626799 0.98870242 0.369515)
(3.6626799 0.98870242 0.37950191)
(3.6626799 0.98870242 0.38948879)
(3.6626799 0.98870242 0.39947569)
(3.6626799 0.98870242 0.4094626)
(3.6626799 0.98870242 0.41944951)
(3.6626799 0.98870242 0.42943639)
(3.6626799 0.98870242 0.43942329)
(3.6626799 0.98870242 0.4494102)
(3.6626799 0.98870242 0.45939711)
(3.6626799 0.98870242 0.46938401)
(3.6626799 0.98870242 0.47937089)
(3.6626799 0.98870242 0.4893578)
(3.6626799 0.98870242 0.49934471)
(3.6626799 0.98870242 0.50933158)
(3.6626799 0.98870242 0.5193184)
(3.6626799 0.98870242 0.52930528)
(3.6626799 0.98870242 0.53929222)
(3.6626799 0.98870242 0.54927909)
(3.6626799 0.98870242 0.55926597)
(3.6626799 0.98870242 0.56925291)
(3.6626799 0.98870242 0.57923979)
(3.6626799 0.98870242 0.58922672)
(3.6626799 0.98870242 0.5992136)
(3.6626799 0.98870242 0.60920048)
(3.6626799 0.98870242 0.61918741)
(3.6626799 0.98870242 0.62917429)
(3.6626799 0.98870242 0.63916123)
(3.6626799 0.98870242 0.64914811)
(3.6626799 0.98870242 0.65913492)
(3.6626799 0.98870242 0.6691218)
(3.6626799 0.98870242 0.67910868)
(3.6626799 0.98870242 0.68909562)
(3.6626799 0.98870242 0.69908249)
(3.6626799 0.98870242 0.70906937)
(3.6626799 0.98870242 0.71905631)
(3.6626799 0.98870242 0.72904319)
(3.6626799 0.98870242 0.73903012)
(3.6626799 0.98870242 0.749017)
(3.6626799 0.98870242 0.75900388)
(3.6626799 0.98870242 0.76899081)
(3.6626799 0.98870242 0.77897769)
(3.6626799 0.98870242 0.78896463)
(3.6626799 0.98870242 0.79895151)
(3.6626799 0.98870242 0.80893832)
(3.6626799 0.98870242 0.8189252)
(3.6626799 0.98870242 0.82891208)
(3.6626799 0.98870242 0.83889902)
(3.6626799 0.98870242 0.84888589)
(3.6626799 0.98870242 0.85887277)
(3.6626799 0.98870242 0.86885971)
(3.6626799 0.98870242 0.87884659)
(3.6626799 0.98870242 0.88883352)
(3.6626799 0.98870242 0.8988204)
(3.6626799 0.98870242 0.90880728)
(3.6626799 0.98870242 0.91879421)
(3.6626799 0.98870242 0.92878109)
(3.6626799 0.98870242 0.93876803)
(3.6626799 0.98870242 0.94875479)
(3.6626799 0.98870242 0.95874172)
(3.6626799 0.98870242 0.9687286)
(3.6626799 0.98870242 0.97871548)
(3.6626799 0.97871548 0.98870242)
(3.6626799 0.9687286 0.98870242)
(3.6626799 0.95874172 0.98870242)
(3.6626799 0.94875479 0.98870242)
(3.6626799 0.93876803 0.98870242)
(3.6626799 0.92878109 0.98870242)
(3.6626799 0.91879421 0.98870242)
(3.6626799 0.90880728 0.98870242)
(3.6626799 0.8988204 0.98870242)
(3.6626799 0.88883352 0.98870242)
(3.6626799 0.87884659 0.98870242)
(3.6626799 0.86885971 0.98870242)
(3.6626799 0.85887277 0.98870242)
(3.6626799 0.84888589 0.98870242)
(3.6626799 0.83889902 0.98870242)
(3.6626799 0.82891208 0.98870242)
(3.6626799 0.8189252 0.98870242)
(3.6626799 0.80893832 0.98870242)
(3.6626799 0.79895151 0.98870242)
(3.6626799 0.78896463 0.98870242)
(3.6626799 0.77897769 0.98870242)
(3.6626799 0.76899081 0.98870242)
(3.6626799 0.75900388 0.98870242)
(3.6626799 0.749017 0.98870242)
(3.6626799 0.73903012 0.98870242)
(3.6626799 0.72904319 0.98870242)
(3.6626799 0.71905631 0.98870242)
(3.6626799 0.70906937 0.98870242)
(3.6626799 0.69908249 0.98870242)
(3.6626799 0.68909562 0.98870242)
(3.6626799 0.67910868 0.98870242)
(3.6626799 0.6691218 0.98870242)
(3.6626799 0.65913492 0.98870242)
(3.6626799 0.64914811 0.98870242)
(3.6626799 0.63916123 0.98870242)